/batch
/config,noeldb,1     ! force off writing results to database
*get,_wallstrt,active,,time,wall
! ANSYS input file written by Workbench version 2025 R2
! File used for geometry attach: C:\Users\andre\Desktop\PBLE00\Projeto-Ansys\Projeto_files\dp0\SYS-3\DM\SYS-3.scdocx
/title,Projeto--Static Structural (C5)
! ****** Begin Custom Load Command Snippet ******
/COM, ACT Extensions:
/COM,     LSDYNA, 2025.2
/COM,     5f463412-bd3e-484b-87e7-cbc0a665e474, wbex
/COM,/COM,     ANSYSMotion, 2025.2
/COM,     20180725-3f81-49eb-9f31-41364844c769, wbex
/COM,
! ****** End   Custom Load Command Snippet ******
*DIM,_wb_ProjectScratch_dir,string,248
_wb_ProjectScratch_dir(1) = 'C:\Users\andre\Desktop\PBLE00\Projeto-Ansys\_ProjectScratch\ScrD030\'
*DIM,_wb_SolverFiles_dir,string,248
_wb_SolverFiles_dir(1) = 'C:\Users\andre\Desktop\PBLE00\Projeto-Ansys\Projeto_files\dp0\SYS-3\MECH\'
*DIM,_wb_userfiles_dir,string,248
_wb_userfiles_dir(1) = 'C:\Users\andre\Desktop\PBLE00\Projeto-Ansys\Projeto_files\user_files\'
/com,--- Data in consistent NMM units. See Solving Units in the help system for more information.
/units,MPA
/nopr
/wb,file,start              !  signify a WB generated input file
/prep7
! Turn off shape checking because checks already performed inside WB mesher.
! See help system for more information.
SHPP,OFF,,NOWARN
/nolist
etcon,set             ! allow ANSYS to choose best KEYOP's for 180x elements, resets any applicable keyopt to MAPDL defaults
/com,*********** Send User Defined Coordinate System(s) ***********
csys,0
/com,*********** Nodes for the whole assembly ***********
nblock,3,,10004
(1i9,3e20.9e3)
    65779     1.105000000E+02    -1.109148503E+02     3.570000000E+00
    65780     1.105000000E+02    -1.114922005E+02     4.570000000E+00
    65781     1.105000000E+02    -1.097601497E+02     3.570000000E+00
    65782     1.105000000E+02    -1.091827995E+02     4.570000000E+00
    65783     1.105000000E+02    -1.097601497E+02     5.570000000E+00
    65784     1.105000000E+02    -1.109148503E+02     5.570000000E+00
    65785     1.105000000E+02    -1.049148503E+02     3.570000000E+00
    65786     1.105000000E+02    -1.054922005E+02     4.570000000E+00
    65787     1.105000000E+02    -1.037601497E+02     3.570000000E+00
    65788     1.105000000E+02    -1.031827995E+02     4.570000000E+00
    65789     1.105000000E+02    -1.037601497E+02     5.570000000E+00
    65790     1.105000000E+02    -1.049148503E+02     5.570000000E+00
    65791     1.105000000E+02    -9.891485027E+01     3.570000000E+00
    65792     1.105000000E+02    -9.949220054E+01     4.570000000E+00
    65793     1.105000000E+02    -9.776014973E+01     3.570000000E+00
    65794     1.105000000E+02    -9.718279946E+01     4.570000000E+00
    65795     1.105000000E+02    -9.776014973E+01     5.570000000E+00
    65796     1.105000000E+02    -9.891485027E+01     5.570000000E+00
    65797     1.105000000E+02    -9.291485027E+01     3.570000000E+00
    65798     1.105000000E+02    -9.349220054E+01     4.570000000E+00
! ... 9076 like lines cut
/wb,elem,start            !  set before creation of elements
/com,*********** Elements for Body 1 'SYS-3\Solid' ***********
et,1,187
MAT,1 $ TYPE,1 $ REAL,1 $ SECNUM,1 $ ESYS,0
eblock,11,COMPACT,,4220
(11i9)
    16220    66251    67364    66727    66728    70018    72812    70015    70016    72816    72807
    16221    66251    67364    66295    66727    70018    70345    70012    70015    72812    70341
    16222    66727    67364    66783    66728    72812    73024    72808    72807    72816    72813
    16223    66295    67364    66783    66727    70345    73024    70342    70341    72812    72808
    16224    66250    66251    67364    66295    70002    70018    70010    70003    70012    70345
    16225    66250    66728    67364    66251    70008    72816    70010    70002    70016    70018
    16226    66295    66783    67364    66297    70342    73024    70345    70340    70358    70361
    16227    66250    66295    67364    66297    70003    70345    70010    70004    70340    70361
    16228    66297    66720    66784    67364    70357    72780    70359    70361    72783    73027
    16229    66719    67364    66784    66720    72776    73027    72775    72773    72783    72780
    16230    66297    66784    66783    67364    70359    73022    70358    70361    73027    73024
    16231    66728    66784    67364    66783    72814    73027    72816    72813    73022    73024
    16232    66250    67364    66400    66297    70010    71094    70005    70004    70361    70355
    16233    66250    66400    67364    66728    70005    71094    70010    70008    71092    72816
    16234    66400    66720    67364    66719    71091    72783    71094    71090    72773    72776
    16235    66719    66784    67364    66728    72775    73027    72776    72774    72814    72816
    16236    66400    67364    66728    66719    71094    72816    71092    71090    72776    72774
    16237    66351    67363    66352    66397    70828    70833    70820    70823    71075    70830
    16238    66351    66791    66352    67363    70826    70831    70820    70828    73045    70833
    16239    66292    66397    66352    67363    70319    70830    70318    70324    71075    70833
! ... 4201 like lines cut
secnum,1    ! reset the section ID to default
! Material Id = {B6B52072-4B2E-41C8-9800-06366F6847BB}
/wb,elem,end               !  done creating elements
toffst,273.15,      ! Temperature offset from absolute zero
/com,*********** Set Reference Temperature ***********
tref,22.
/wb,mat,start              !  starting to send materials
/com,*********** Send Materials ***********
MP,DENS,1,9.034e-10,	! tonne mm^-3
MP,EX,1,1461,	! tonne s^-2 mm^-1
MP,NUXY,1,0.4087,
MP,ALPX,1,9.909e-05,	! C^-1
MP,KXX,1,0.209,	! tonne mm s^-3 C^-1
MP,C,1,1600000000,	! mm^2 s^-2 C^-1
MP,RSVX,1,1e+19,	! ohm mm
MP,LSST,1,0.0002,
MP,PERX,1,2.2,
MP,UVID,1,0d424e2c-0bfa-4d16-98f2-3d82c5736ae7
MP,UMID,1,5608350a-b010-4b71-8187-140619865111

/wb,mat,end                !  done sending materials
!************************* Model Summary ********************
!SYS-3\Solid,	Plastic, PP (homopolymer, low flow),	matid,	1
!************************* End Model Summary ********************
! get the diagonal of the bounding box. Needed later for other things
*get,_xmin,node,,mnloc,x
*get,_ymin,node,,mnloc,y
*get,_zmin,node,,mnloc,z
*get,_xmax,node,,mxloc,x
*get,_ymax,node,,mxloc,y
*get,_zmax,node,,mxloc,z
_ASMDIAG=(_xmax-_xmin)*(_xmax-_xmin)+(_ymax-_ymin)*(_ymax-_ymin)+(_zmax-_zmin)*(_zmax-_zmin)
_ASMDIAG=SQRT(_ASMDIAG)
/wb,contact,start          !  starting to send contact
/wb,contact,end            !  done creating contacts
/golist
/wb,load,start             !  starting to send loads
/com,*********** Fixed Supports ***********
CMBLOCK,_FIXEDSU,NODE,      123
(8i10)
     65869     65877    -65889     66477    -66518     67244    -67290     68038
     68040     68084     68087     68088     68091     68093     68094     68099
    -68101     68106     68107     68112    -68114     68118     68119     68126
    -68128     68133     68134     68139    -68141     68146     68147     68153
    -68155     68160     68161     68165     68167     71585     71586     71588
     71590     71591     71594    -71596     71599     71600     71604    -71606
     71609     71610     71614    -71616     71619     71620     71623    -71625
     71628     71629     71631     71632     71637    -71639     71641     71642
     71645    -71647     71650    -71652     71654     71655     71658     71659
     71662    -71664     71667    -71669     71672     71673     71676    -71678
     71681     71682     71685    -71687     71689     71690     71693    -71695
     71698     71699     71702     71703     71706     71707     71710     71711
     71716     71717     71722    -71724     71729     71730     71734    -71736
     71741     71742     71746    -71748     71753     71754     71759    -71761
     71765     71766     71771    -71773     71778     71779     71783     71784
     71788     74760    -74873
cmsel,s,_FIXEDSU
d,all,all
nsel,all
/com,*********** Define Force Using Surface Effect Elements ***********
local,12,0,0.,0.,0.,0.,0.,0.
csys,0
et,2,154
MAT,2 $ TYPE,2 $ REAL,2 $ SECNUM,2 $ ESYS,12
eblock,11,COMPACT,,278
(11i9)
    43678    67054    67121    67062    67062    74151    74192    67062    74147
    43679    67050    67077    67111    67111    74125    74254    67111    74126
    43680    67045    67123    67085    67085    74096    74277    67085    74094
    43681    67050    67072    67065    67065    74123    74205    67065    74122
    43682    67049    67104    67138    67138    74120    74308    67138    74121
    43683    67048    67084    67071    67071    74113    74231    67071    74111
    43684    67057    67131    67116    67116    74167    74328    67116    74165
    43685    67071    67140    67143    67143    74234    74342    67143    74235
    43686    67058    67122    67129    67129    74171    74334    67129    74172
    43687    67057    67068    67112    67112    74162    74222    67112    74164
    43688    67056    67114    67061    67061    74159    74186    67061    74158
    43689    67048    67078    67084    67084    74112    74256    67084    74113
    43690    67071    67143    67104    67104    74235    74309    67104    74233
    43691    67050    67111    67075    67075    74126    74246    67075    74124
    43692    67045    67085    67064    67064    74094    74202    67064    74090
    43693    67069    67074    67086    67086    74223    74243    67086    74224
    43694    67048    67069    67086    67086    74110    74224    67086    74114
    43695    67072    67118    67081    67081    74238    74266    67081    74236
    43696    67059    67093    67091    67091    74177    74288    67091    74176
    43697    67117    67129    67122    67122    74330    74334    67122    74329
! ... 259 like lines cut
secnum,1    ! reset the section ID to default
esel,s,type,,2
keyop,2,2,1         ! Apply load in local coordinate system
keyop,2,7,1         ! Use original area so load is constant in large deformation
esel,all
/gst,on,on
fini
*get,_numnode,node,0,count
*get,_numelem,elem,0,count
*get, _MAXELEMNUM, elem, 0, NUM, MAX
*get, _MAXNODENUM, node, 0, NUM, MAX
*get, _MAXELEMTYPE, etyp, 0, NUM, MAX
*get, _MAXREALCONST, rcon, 0, NUM, MAX
/go
/wb,load,end               !  done creating loads
/com,--- Number of total nodes = %_numnode%
/com,--- Number of contact elements = 278
/com,--- Number of spring elements = 0
/com,--- Number of bearing elements = 0
/com,--- Number of solid elements = 4220
/com,--- Number of condensed parts = 0
/com,--- Number of total elements = %_numelem%
*get,_wallbsol,active,,time,wall
/com,****************************************************************************
/com,*************************    SOLUTION       ********************************
/com,****************************************************************************
/solu
antype,0                   ! static analysis
_thickRatio=  0     ! Ratio of thick parts in the model
eqsl,sparse,,,,,1
cntr,print,1               ! print out contact info and also make no initial contact an error
cncheck,dmp		!	Enable program controlled contact splitting for distributed memory parallel run
dmpoption,emat,no             ! Don't combine emat file for DANSYS
dmpoption,esav,no             ! Don't combine esav file for DANSYS
nldiag,cont,iter           ! print out contact info each equilibrium iteration
rescontrol,,none                 ! Do not keep any restart files
/com,****************************************************
/com,******************* SOLVE FOR LS 1 OF 1 ****************
esel,s,type,,2
nsle
sfe,all,1,pres,1,2.19170438769216e-032
sfe,all,2,pres,1,1.78966257920974e-016
sfe,all,3,pres,1,-0.271160986296231
nsel,all
esel,all
/nopr
/gopr
nsub,1,1,1
time,1.
outres,erase
outres,all,none
outres,nsol,all,
outres,rsol,all
outres,eangl,all
outres,etmp,all
outres,veng,all
outres,strs,all,
outres,epel,all,
outres,eppl,all,
outres,cont,all,
! *********** WB SOLVE COMMAND ***********
! check interactive state
*get,ANSINTER_,active,,int
*if,ANSINTER_,ne,0,then
/eof
*endif
solve
/com *************** Write FE CONNECTORS ********* 
CEWRITE,file,ce,,INTE
/com,****************************************************
/com,*************** FINISHED SOLVE FOR LS 1 *************
*get,_wallasol,active,,time,wall
/nopr
*get,_numnode,node,0,count
*get,_numelem,elem,0,count
*get, _MAXELEMNUM, elem, 0, NUM, MAX
*get, _MAXNODENUM, node, 0, NUM, MAX,,,INTERNAL
*get, _MAXELEMTYPE, etyp, 0, NUM, MAX
*get, _MAXREALCONST, rcon, 0, NUM, MAX
*get,_NSOLTHREADS,active,0,ntfs
*get,_NSOLPROCESSES,active,0,npfs
/gopr
/post1
xmlo,ENCODING,ISO-8859-1
xmlo,parm
/xml,parm,xml
fini
/gopr
*get,_walldone,active,,time,wall
_preptime=(_wallbsol-_wallstrt)*3600
_solvtime=(_wallasol-_wallbsol)*3600
_posttime=(_walldone-_wallasol)*3600
_totaltim=(_walldone-_wallstrt)*3600
*get,_dlbratio,active,0,solu,dlbr
*get,_combtime,active,0,solu,comb
*get,_ssmode,active,0,solu,ssmm
*get,_ndofs,active,0,solu,ndof
*get,_sol_end_time,active,0,set,time
*if,_sol_end_time,eq,1.000000,then
/fclean				!clean distributed files
*endif
/com,--- Total number of nodes = %_numnode%
/com,--- Total number of elements = %_numelem%
/com,--- Element load balance ratio = %_dlbratio%
/com,--- Time to combine distributed files = %_combtime%
/com,--- Sparse memory mode = %_ssmode%
/com,--- Number of DOF = %_ndofs%
/wb,file,end               ! done with WB generated input
