/batch
/config,noeldb,1     ! force off writing results to database
*get,_wallstrt,active,,time,wall
! ANSYS input file written by Workbench version 2025 R2
! File used for geometry attach: C:\Users\andre\Desktop\PBLE00\Projeto-Ansys\Projeto_files\dp0\SYS-3\DM\SYS-3.scdocx
/title,Projeto--Static Structural (C5)
! ****** Begin Custom Load Command Snippet ******
/COM, ACT Extensions:
/COM,     LSDYNA, 2025.2
/COM,     5f463412-bd3e-484b-87e7-cbc0a665e474, wbex
/COM,/COM,     ANSYSMotion, 2025.2
/COM,     20180725-3f81-49eb-9f31-41364844c769, wbex
/COM,
! ****** End   Custom Load Command Snippet ******
*DIM,_wb_ProjectScratch_dir,string,248
_wb_ProjectScratch_dir(1) = 'C:\Users\andre\Desktop\PBLE00\Projeto-Ansys\_ProjectScratch\Scr4EA8\'
*DIM,_wb_SolverFiles_dir,string,248
_wb_SolverFiles_dir(1) = 'C:\Users\andre\Desktop\PBLE00\Projeto-Ansys\Projeto_files\dp0\SYS-3\MECH\'
*DIM,_wb_userfiles_dir,string,248
_wb_userfiles_dir(1) = 'C:\Users\andre\Desktop\PBLE00\Projeto-Ansys\Projeto_files\user_files\'
/com,--- Data in consistent NMM units. See Solving Units in the help system for more information.
/units,MPA
/nopr
/wb,file,start              !  signify a WB generated input file
/prep7
! Turn off shape checking because checks already performed inside WB mesher.
! See help system for more information.
SHPP,OFF,,NOWARN
/nolist
etcon,set             ! allow ANSYS to choose best KEYOP's for 180x elements, resets any applicable keyopt to MAPDL defaults
/com,*********** Send User Defined Coordinate System(s) ***********
csys,0
/com,*********** Nodes for the whole assembly ***********
nblock,3,,21370
(1i9,3e20.9e3)
    80772     1.442046218E+02    -1.055542372E+02     1.389500000E+01
    80773     1.470749102E+02    -1.055031402E+02     1.389500000E+01
    80774     1.469050902E+02    -1.103884806E+02     1.389500000E+01
    80775     1.449312954E+02    -1.016444419E+02     1.389500000E+01
    80776     1.452762597E+02    -1.006092231E+02     1.389500000E+01
    80777     1.465784411E+02    -1.027824537E+02     1.389500000E+01
    80778     1.469875210E+02    -9.938137041E+01     1.389500000E+01
    80779     1.441297428E+02    -1.001790475E+02     1.389500000E+01
    80780     1.437437420E+02    -1.040366182E+02     1.389500000E+01
    80781     1.454062753E+02    -1.110359482E+02     1.389500000E+01
    80782     1.453420813E+02    -9.726951043E+01     1.389500000E+01
    80783     1.446525119E+02    -9.516492578E+01     1.389500000E+01
    80784     1.426452632E+02    -9.558981449E+01     1.389500000E+01
    80785     1.470875275E+02    -9.776075702E+01     1.389500000E+01
    80786     1.476743998E+02    -1.085060079E+02     1.389500000E+01
    80787     1.486293491E+02    -1.123118051E+02     1.389500000E+01
    80788     1.437607150E+02    -1.106540105E+02     1.389500000E+01
    80789     1.405667002E+02    -1.106976593E+02     1.389500000E+01
    80790     1.498134841E+02    -1.060112933E+02     1.389500000E+01
    80791     1.407608977E+02    -1.082429226E+02     1.389500000E+01
! ... 19409 like lines cut
/wb,elem,start            !  set before creation of elements
/com,*********** Elements for Body 1 'SYS-3\Solid1' ***********
et,1,187
MAT,1 $ TYPE,1 $ REAL,1 $ SECNUM,1 $ ESYS,0
eblock,11,COMPACT,,6868
(11i9)
    40402    66051    68420    66996    66932    70500    75867    70498    70496    75624    75621
    40403    66051    68420    66052    66996    70500    70507    70493    70498    75867    70505
    40404    66051    68420    66120    66052    70500    70891    70495    70493    70507    70504
    40405    66051    66932    66120    68420    70496    70889    70495    70500    75624    70891
    40406    66932    68420    66996    67000    75624    75867    75621    75622    75877    75865
    40407    66052    66996    68420    67000    70505    75867    70507    70506    75865    75877
    40408    66120    68420    66932    66933    70891    75624    70889    70890    75630    75620
    40409    66933    67000    66991    68420    75628    75854    75627    75630    75877    75855
    40410    66068    68420    66991    67000    70603    75855    70599    70602    75877    75854
    40411    66932    68420    67000    66933    75624    75877    75622    75620    75630    75628
    40412    66067    68420    66991    66068    70596    75855    70594    70588    70603    70599
    40413    66119    68420    66120    66933    70888    70891    70884    70885    75630    70890
    40414    66052    68420    66120    66119    70507    70891    70504    70503    70888    70884
    40415    66052    66068    67000    68420    70502    70602    70506    70507    70603    75877
    40416    66067    68420    66119    66933    70596    70888    70591    70592    75630    70885
    40417    66067    66068    66119    68420    70588    70598    70591    70596    70603    70888
    40418    66052    68420    66119    66068    70507    70888    70503    70502    70603    70598
    40419    66057    68419    66984    66920    70537    75835    70535    70533    75579    75576
    40420    66057    66984    68419    66058    70535    75835    70537    70531    70543    70545
    40421    66920    66984    66988    68419    75576    75833    75577    75579    75835    75846
! ... 6849 like lines cut
secnum,1    ! reset the section ID to default
! Material Id = {28577F32-60E0-4D5B-9851-0767A3F70773}
/com,*********** Elements for Body 2 'SYS-3\Solid' ***********
et,2,186
keyo,2,2,1          ! set full integration on SOLID186
MAT,2 $ TYPE,2 $ REAL,2 $ SECNUM,2 $ ESYS,0
eblock,11,COMPACT,,234
(11i9)
    16220    80775    80962    80963    80796    81152    80965    80964    81131    81336    81931
    81426    81334    81941    81936    81937    82331    81337    81932    81934    81427
    16221    80780    80799    80796    80963    81147    81128    81131    80964    81356    81424
    81426    81357    82326    82324    81937    81938    81358    81436    81427    81934
    16222    80780    80963    81300    81301    81147    80964    81170    81164    81357    81935
    82588    81359    81938    81939    82381    82354    81358    81934    82394    82382
    16223    80962    81302    81300    80963    80965    81171    81170    80964    81933    82589
    81935    81931    81942    82393    81939    81936    81932    82395    82394    81934
    16224    80775    80776    80957    80797    81152    81151    80970    81130    81333    81339
    81429    81335    82359    81962    81960    82329    81337    81340    81923    81430
    16225    80775    80797    80777    80962    81152    81130    81150    80965    81335    81342
    81344    81336    82329    82328    81940    81941    81337    81430    81345    81932
    16226    80777    81303    81302    80962    81150    81169    81171    80965    81346    82591
    81933    81344    82358    82391    81942    81940    81345    82392    82395    81932
    16227    80787    80802    80812    80823    81140    81125    81115    81104    81385    81445
    81476    81387    82320    82298    82275    82276    81389    81446    81477    81513
    16228    80787    80823    80852    80827    81140    81104    81075    81100    81387    81512
    81525    81388    82276    82210    82209    82268    81389    81513    81603    81526
    16229    80782    80785    81311    81310    81145    81142    81161    81163    81365    81380
    82599    81368    82345    82347    82375    82350    81367    81379    82376    82379
! ... 449 like lines cut
secnum,1    ! reset the section ID to default
! Material Id = {83550A1D-A421-41EC-8CBE-828A91A24115}
/com,*********** Elements for Body 3 'SYS-3\Solid11' ***********
et,3,187
MAT,3 $ TYPE,3 $ REAL,3 $ SECNUM,3 $ ESYS,0
eblock,11,COMPACT,,1172
(11i9)
    16454    82615    82619    82864    83075    83147    83160    83148    83150    83163    84448
    16455    82607    83075    82619    82615    83113    83163    83109    83107    83150    83147
    16456    82615    82864    82865    83075    83148    84441    83149    83150    84448    84454
    16457    82607    82865    83075    82615    83110    84454    83113    83107    83149    83150
    16458    82619    83075    83070    82945    83163    85205    83162    83161    84867    84866
    16459    82864    83070    83075    82945    84446    85205    84448    84443    84866    84867
    16460    82619    82864    83075    82945    83160    84448    83163    83161    84443    84867
    16461    82607    82619    83075    82611    83109    83163    83113    83106    83126    83129
    16462    82864    82994    82865    83075    84444    84452    84441    84448    85092    84454
    16463    82611    83070    82619    83075    83128    83162    83126    83129    85205    83163
    16464    82607    83075    82994    82611    83113    85092    83112    83106    83129    83127
    16465    82611    82994    83070    83075    83127    85090    83128    83129    85092    85205
    16466    82864    83070    82994    83075    84446    85090    84444    84448    85205    85092
    16467    82629    82865    82864    83074    83224    84441    83223    83225    84453    84447
    16468    82864    82865    82994    83074    84441    84452    84444    84447    84453    85091
    16469    82621    83074    82865    82629    83179    84453    83176    83173    83225    83224
    16470    82629    82864    82632    83074    83223    83238    83221    83225    84447    83242
    16471    82632    82864    82914    83074    83238    84442    83239    83242    84447    84739
    16472    82864    83044    82914    83074    84445    84736    84442    84447    85187    84739
    16473    82914    83074    83044    83071    84739    85187    84736    84738    85206    85186
! ... 1153 like lines cut
secnum,1    ! reset the section ID to default
! Material Id = {E925692C-C2E6-4328-AB3B-6EE6612EA7F8}
/wb,elem,end               !  done creating elements
toffst,273.15,      ! Temperature offset from absolute zero
/com,*********** Set Reference Temperature ***********
tref,22.
/wb,mat,start              !  starting to send materials
/com,*********** Send Materials ***********
Temperature = 'TEMP' ! Temperature
MP,DENS,1,9.034e-10,	! tonne mm^-3
MP,EX,1,1461,	! tonne s^-2 mm^-1
MP,NUXY,1,0.4087,
MP,ALPX,1,9.909e-05,	! C^-1
MP,KXX,1,0.209,	! tonne mm s^-3 C^-1
MP,C,1,1600000000,	! mm^2 s^-2 C^-1
MP,RSVX,1,1e+19,	! ohm mm
MP,LSST,1,0.0002,
MP,PERX,1,2.2,
MP,UVID,1,0d424e2c-0bfa-4d16-98f2-3d82c5736ae7
MP,UMID,1,5608350a-b010-4b71-8187-140619865111

Temperature = 'TEMP' ! Temperature
MP,DENS,2,7.85e-09,	! tonne mm^-3
MP,ALPX,2,1.2e-05,	! C^-1
MP,C,2,434000000,	! mm^2 s^-2 C^-1
MP,KXX,2,60.5,	! tonne mm s^-3 C^-1
MP,RSVX,2,0.00017,	! ohm mm
MP,EX,2,200000,	! tonne s^-2 mm^-1
MP,NUXY,2,0.3,
MP,MURX,2,10000,
MP,UVID,2,fa42a8ae-f5db-4b89-bdc6-00f33fa7b55f
MP,UMID,2,59002a79-71c2-428e-906b-55d7dbee100e

Temperature = 'TEMP' ! Temperature
MP,DENS,3,9.034e-10,	! tonne mm^-3
MP,EX,3,1461,	! tonne s^-2 mm^-1
MP,NUXY,3,0.4087,
MP,ALPX,3,9.909e-05,	! C^-1
MP,KXX,3,0.209,	! tonne mm s^-3 C^-1
MP,C,3,1600000000,	! mm^2 s^-2 C^-1
MP,RSVX,3,1e+19,	! ohm mm
MP,LSST,3,0.0002,
MP,PERX,3,2.2,
MP,UVID,3,0d424e2c-0bfa-4d16-98f2-3d82c5736ae7
MP,UMID,3,5608350a-b010-4b71-8187-140619865111

/wb,mat,end                !  done sending materials
!************************* Model Summary ********************
!SYS-3\Solid1,	Plastic, PP (homopolymer, low flow),	matid,	1
!SYS-3\Solid,	Structural Steel,	matid,	2
!SYS-3\Solid11,	Plastic, PP (homopolymer, low flow),	matid,	3
!************************* End Model Summary ********************
! get the diagonal of the bounding box. Needed later for other things
*get,_xmin,node,,mnloc,x
*get,_ymin,node,,mnloc,y
*get,_zmin,node,,mnloc,z
*get,_xmax,node,,mxloc,x
*get,_ymax,node,,mxloc,y
*get,_zmax,node,,mxloc,z
_ASMDIAG=(_xmax-_xmin)*(_xmax-_xmin)+(_ymax-_ymin)*(_ymax-_ymin)+(_zmax-_zmin)*(_zmax-_zmin)
_ASMDIAG=SQRT(_ASMDIAG)
/wb,contact,start          !  starting to send contact
/com,*********** Create Contact "Contact Region" ***********
/com,            Real Constant Set For Above Contact Is 5 & 4 
*set,tid,5
*set,cid,4
r,tid
r,cid
et,tid,170
et,cid,174
MAT,5 $ TYPE,5 $ REAL,5 $ SECNUM,5 $ ESYS,0
eblock,11,COMPACT,,145
(11i9)
    52638    67509    67538    67510    67510    77831    77834    67510    77829
    52639    67509    67537    67538    67538    77830    77976    67538    77831
    52640    67508    67537    67509    67509    77826    77830    67509    77824
    52641    67534    67757    67535    67535    77964    77971    67535    77961
    52642    65844    65849    67547    67547    68952    69004    67547    68955
    52643    67529    67757    67756    67756    77938    79163    67756    77937
    52644    67510    67538    67539    67539    77834    77978    67539    77835
    52645    67508    67536    67537    67537    77825    77974    67537    77826
    52646    67534    67756    67757    67757    77963    79163    67757    77964
    52647    67541    67542    68149    68149    77983    77987    68149    77984
    52648    67541    68159    67540    67540    77985    77982    67540    77981
    52649    67535    67536    68150    68150    77970    77975    68150    77972
    52650    67508    68150    67536    67536    77827    77975    67536    77825
    52651    67534    67535    68150    68150    77961    77972    68150    77967
    52652    67543    67544    68153    68153    77990    77994    68153    77991
    52653    67542    68153    68149    68149    77988    80534    68149    77987
    52654    67542    67543    68153    68153    77986    77991    68153    77988
    52655    67545    67546    68155    68155    77997    78000    68155    77998
    52656    67544    68155    68153    68153    77995    80549    68153    77994
    52657    67544    67545    68155    68155    77993    77998    68155    77995
! ... 126 like lines cut
secnum,1    ! reset the section ID to default
MAT,4 $ TYPE,4 $ REAL,4 $ SECNUM,4 $ ESYS,0
eblock,11,COMPACT,,145
(11i9)
    52783    67509    67538    67510    67510    77831    77834    67510    77829
    52784    67509    67537    67538    67538    77830    77976    67538    77831
    52785    67508    67537    67509    67509    77826    77830    67509    77824
    52786    67534    67757    67535    67535    77964    77971    67535    77961
    52787    65844    65849    67547    67547    68952    69004    67547    68955
    52788    67529    67757    67756    67756    77938    79163    67756    77937
    52789    67510    67538    67539    67539    77834    77978    67539    77835
    52790    67508    67536    67537    67537    77825    77974    67537    77826
    52791    67534    67756    67757    67757    77963    79163    67757    77964
    52792    67541    67542    68149    68149    77983    77987    68149    77984
    52793    67541    68159    67540    67540    77985    77982    67540    77981
    52794    67535    67536    68150    68150    77970    77975    68150    77972
    52795    67508    68150    67536    67536    77827    77975    67536    77825
    52796    67534    67535    68150    68150    77961    77972    68150    77967
    52797    67543    67544    68153    68153    77990    77994    68153    77991
    52798    67542    68153    68149    68149    77988    80534    68149    77987
    52799    67542    67543    68153    68153    77986    77991    68153    77988
    52800    67545    67546    68155    68155    77997    78000    68155    77998
    52801    67544    68155    68153    68153    77995    80549    68153    77994
    52802    67544    67545    68155    68155    77993    77998    68155    77995
! ... 126 like lines cut
secnum,1    ! reset the section ID to default
MAT,4 $ TYPE,4 $ REAL,5 $ SECNUM,4 $ ESYS,0
eblock,11,COMPACT,,56
(11i9)
    52928    81250    81249    81234    81235    82538    82522    82521    82523
    52929    81249    81248    81233    81234    82537    82520    82519    82522
    52930    81248    81247    81232    81233    82536    82518    82517    82520
    52931    81247    81246    81231    81232    82535    82516    82515    82518
    52932    81246    81245    81230    81231    82534    82514    82513    82516
    52933    81245    81244    81229    81230    82533    82512    82511    82514
    52934    81244    81243    81228    81229    82532    82510    82509    82512
    52935    81243    81242    81227    81228    82531    82508    82507    82510
    52936    81242    81241    81226    81227    82530    82506    82505    82508
    52937    81241    81240    81225    81226    82529    82504    82503    82506
    52938    81240    81239    81224    81225    82528    82502    82501    82504
    52939    81239    81238    81223    81224    82527    82500    82499    82502
    52940    81238    81237    81222    81223    82526    82498    82497    82500
    52941    81237    81236    81221    81222    82524    82496    82495    82498
    52942    81236    81251    81220    81221    82525    82494    82493    82496
    52943    81219    81218    81265    81266    82490    82491    82555    82492
    52944    81218    81217    81264    81265    82488    82489    82554    82491
    52945    81217    81216    81263    81264    82486    82487    82553    82489
    52946    81216    81215    81262    81263    82484    82485    82552    82487
    52947    81215    81214    81261    81262    82482    82483    82551    82485
! ... 37 like lines cut
secnum,1    ! reset the section ID to default
MAT,5 $ TYPE,5 $ REAL,4 $ SECNUM,5 $ ESYS,0
eblock,11,COMPACT,,56
(11i9)
    52984    81250    81249    81234    81235    82538    82522    82521    82523
    52985    81249    81248    81233    81234    82537    82520    82519    82522
    52986    81248    81247    81232    81233    82536    82518    82517    82520
    52987    81247    81246    81231    81232    82535    82516    82515    82518
    52988    81246    81245    81230    81231    82534    82514    82513    82516
    52989    81245    81244    81229    81230    82533    82512    82511    82514
    52990    81244    81243    81228    81229    82532    82510    82509    82512
    52991    81243    81242    81227    81228    82531    82508    82507    82510
    52992    81242    81241    81226    81227    82530    82506    82505    82508
    52993    81241    81240    81225    81226    82529    82504    82503    82506
    52994    81240    81239    81224    81225    82528    82502    82501    82504
    52995    81239    81238    81223    81224    82527    82500    82499    82502
    52996    81238    81237    81222    81223    82526    82498    82497    82500
    52997    81237    81236    81221    81222    82524    82496    82495    82498
    52998    81236    81251    81220    81221    82525    82494    82493    82496
    52999    81219    81218    81265    81266    82490    82491    82555    82492
    53000    81218    81217    81264    81265    82488    82489    82554    82491
    53001    81217    81216    81263    81264    82486    82487    82553    82489
    53002    81216    81215    81262    81263    82484    82485    82552    82487
    53003    81215    81214    81261    81262    82482    82483    82551    82485
! ... 37 like lines cut
secnum,1    ! reset the section ID to default
keyo,cid,8,2               ! auto create asymmetric contact (from Program Controlled setting)
keyo,cid,10,0              ! adjust contact stiffness each NR iteration (from Program Controlled setting)
keyo,cid,12,5              ! bonded always
keyo,cid,18,1              ! small sliding turned on by application
keyo,cid,2,2               ! MPC for bonded contacts (from Program Controlled setting)
keyo,tid,5,0               ! Automatic constraint type detection
keyo,cid,4,2               ! on nodal point - normal to target surface (from Program Controlled setting)
keyo,cid,9,1               ! ignore initial gaps/penetration
keyo,cid,7,0               ! No Prediction
rmod,tid,3,10.      ! FKN
rmod,tid,5,0.       ! ICONT
rmod,tid,6,0.       ! PINB
rmod,tid,10,0.      ! CNOF
rmod,tid,12,0.      ! FKT
rmod,tid,36,1487    ! WB DSID
rmod,cid,3,10.      ! FKN
rmod,cid,5,0.       ! ICONT
rmod,cid,6,0.       ! PINB
rmod,cid,10,0.      ! CNOF
rmod,cid,12,0.      ! FKT
rmod,cid,36,1487    ! WB DSID
/com,*********** Create Contact "Contact Region 2" ***********
/com,            Real Constant Set For Above Contact Is 7 & 6 
*set,tid,7
*set,cid,6
r,tid
r,cid
et,tid,170
et,cid,174
MAT,7 $ TYPE,7 $ REAL,7 $ SECNUM,7 $ ESYS,0
eblock,11,COMPACT,,157
(11i9)
    53040    66219    66217    66223    66223    71400    71403    66223    71415
    53041    66218    66221    66222    66222    71408    71424    66222    71409
    53042    66217    66219    66221    66221    71400    71413    66221    71402
    53043    66221    66219    66222    66222    71413    71414    66222    71424
    53044    66217    66220    66223    66223    71401    71419    66223    71403
    53045    66217    66224    66220    66220    71404    71420    66220    71401
    53046    66252    66256    66251    66251    71621    71617    66251    71614
    53047    66250    66254    66253    66253    71612    71624    66253    71611
    53048    66251    66249    66254    66254    71604    71606    66254    71615
    53049    66251    66256    66249    66249    71617    71607    66249    71604
    53050    66251    66255    66252    66252    71616    71620    66252    71614
    53051    66254    66249    66253    66253    71606    71605    66253    71624
    53052    66237    66238    66234    66234    71525    71510    66234    71509
    53053    66235    66240    66239    66239    71516    71532    66239    71515
    53054    66233    66238    66237    66237    71504    71525    66237    71503
    53055    66238    66240    66235    66235    71529    71516    66235    71514
    53056    66236    66239    66240    66240    71520    71532    66240    71521
    53057    66240    66238    66233    66233    71529    71504    66233    71505
    53058    66684    67451    67741    67741    74495    77549    67741    74498
    53059    66679    67456    67455    67455    74468    77561    67455    74467
! ... 138 like lines cut
secnum,1    ! reset the section ID to default
MAT,6 $ TYPE,6 $ REAL,6 $ SECNUM,6 $ ESYS,0
eblock,11,COMPACT,,157
(11i9)
    53197    66219    66217    66223    66223    71400    71403    66223    71415
    53198    66218    66221    66222    66222    71408    71424    66222    71409
    53199    66217    66219    66221    66221    71400    71413    66221    71402
    53200    66221    66219    66222    66222    71413    71414    66222    71424
    53201    66217    66220    66223    66223    71401    71419    66223    71403
    53202    66217    66224    66220    66220    71404    71420    66220    71401
    53203    66252    66256    66251    66251    71621    71617    66251    71614
    53204    66250    66254    66253    66253    71612    71624    66253    71611
    53205    66251    66249    66254    66254    71604    71606    66254    71615
    53206    66251    66256    66249    66249    71617    71607    66249    71604
    53207    66251    66255    66252    66252    71616    71620    66252    71614
    53208    66254    66249    66253    66253    71606    71605    66253    71624
    53209    66237    66238    66234    66234    71525    71510    66234    71509
    53210    66235    66240    66239    66239    71516    71532    66239    71515
    53211    66233    66238    66237    66237    71504    71525    66237    71503
    53212    66238    66240    66235    66235    71529    71516    66235    71514
    53213    66236    66239    66240    66240    71520    71532    66240    71521
    53214    66240    66238    66233    66233    71529    71504    66233    71505
    53215    66684    67451    67741    67741    74495    77549    67741    74498
    53216    66679    67456    67455    67455    74468    77561    67455    74467
! ... 138 like lines cut
secnum,1    ! reset the section ID to default
MAT,6 $ TYPE,6 $ REAL,7 $ SECNUM,6 $ ESYS,0
eblock,11,COMPACT,,110
(11i9)
    53354    82841    82871    82859    82859    84244    84407    82859    84243
    53355    82859    82908    82895    82895    84409    84645    82895    84408
    53356    82866    82919    82910    82910    84457    84710    82910    84456
    53357    82698    82748    82773    82773    83657    83873    82773    83659
    53358    82837    82883    82889    82889    84204    84578    82889    84205
    53359    82841    82859    82895    82895    84243    84408    82895    84246
    53360    82883    82901    82889    82889    84579    84611    82889    84578
    53361    82866    82887    82919    82919    84455    84604    82919    84457
    53362    82699    82774    82734    82734    83666    83807    82734    83665
    53363    82699    82788    82785    82785    83670    84011    82785    83669
    53364    82699    82734    82788    82788    83665    83809    82788    83670
    53365    82698    82791    82748    82748    83662    83874    82748    83657
    53366    82698    82784    82791    82791    83661    84008    82791    83662
    53367    82715    82772    82750    82750    83715    83881    82750    83714
    53368    82715    82750    82790    82790    83714    83882    82790    83719
    53369    82715    82790    82787    82787    83719    84015    82787    83718
    53370    82717    82952    82775    82775    83728    83980    82775    83726
    53371    82741    82742    82843    82843    83837    83846    82843    83840
    53372    82744    82745    82856    82856    83853    83861    82856    83856
    53373    82761    82762    82859    82859    83933    83939    82859    83936
! ... 91 like lines cut
secnum,1    ! reset the section ID to default
MAT,7 $ TYPE,7 $ REAL,6 $ SECNUM,7 $ ESYS,0
eblock,11,COMPACT,,110
(11i9)
    53464    82841    82871    82859    82859    84244    84407    82859    84243
    53465    82859    82908    82895    82895    84409    84645    82895    84408
    53466    82866    82919    82910    82910    84457    84710    82910    84456
    53467    82698    82748    82773    82773    83657    83873    82773    83659
    53468    82837    82883    82889    82889    84204    84578    82889    84205
    53469    82841    82859    82895    82895    84243    84408    82895    84246
    53470    82883    82901    82889    82889    84579    84611    82889    84578
    53471    82866    82887    82919    82919    84455    84604    82919    84457
    53472    82699    82774    82734    82734    83666    83807    82734    83665
    53473    82699    82788    82785    82785    83670    84011    82785    83669
    53474    82699    82734    82788    82788    83665    83809    82788    83670
    53475    82698    82791    82748    82748    83662    83874    82748    83657
    53476    82698    82784    82791    82791    83661    84008    82791    83662
    53477    82715    82772    82750    82750    83715    83881    82750    83714
    53478    82715    82750    82790    82790    83714    83882    82790    83719
    53479    82715    82790    82787    82787    83719    84015    82787    83718
    53480    82717    82952    82775    82775    83728    83980    82775    83726
    53481    82741    82742    82843    82843    83837    83846    82843    83840
    53482    82744    82745    82856    82856    83853    83861    82856    83856
    53483    82761    82762    82859    82859    83933    83939    82859    83936
! ... 91 like lines cut
secnum,1    ! reset the section ID to default
keyo,cid,8,2               ! auto create asymmetric contact (from Program Controlled setting)
keyo,cid,10,0              ! adjust contact stiffness each NR iteration (from Program Controlled setting)
keyo,cid,12,5              ! bonded always
keyo,cid,18,1              ! small sliding turned on by application
keyo,cid,2,2               ! MPC for bonded contacts (from Program Controlled setting)
keyo,tid,5,0               ! Automatic constraint type detection
keyo,cid,4,2               ! on nodal point - normal to target surface (from Program Controlled setting)
keyo,cid,9,1               ! ignore initial gaps/penetration
keyo,cid,7,0               ! No Prediction
rmod,tid,3,10.      ! FKN
rmod,tid,5,0.       ! ICONT
rmod,tid,6,0.       ! PINB
rmod,tid,10,0.      ! CNOF
rmod,tid,12,0.      ! FKT
rmod,tid,36,1498    ! WB DSID
rmod,cid,3,10.      ! FKN
rmod,cid,5,0.       ! ICONT
rmod,cid,6,0.       ! PINB
rmod,cid,10,0.      ! CNOF
rmod,cid,12,0.      ! FKT
rmod,cid,36,1498    ! WB DSID
/com,*********** Create Contact "Contact Region 3" ***********
/com,            Real Constant Set For Above Contact Is 9 & 8 
*set,tid,9
*set,cid,8
r,tid
r,cid
et,tid,170
et,cid,174
MAT,9 $ TYPE,9 $ REAL,9 $ SECNUM,9 $ ESYS,0
eblock,11,COMPACT,,234
(11i9)
    53574    80962    80775    80796    80963    81336    81334    81426    81931
    53575    80963    80796    80799    80780    81426    81424    81356    81357
    53576    81300    80963    80780    81301    81935    81357    81359    82588
    53577    80962    80963    81300    81302    81931    81935    82589    81933
    53578    80775    80797    80957    80776    81335    81429    81339    81333
    53579    80962    80777    80797    80775    81344    81342    81335    81336
    53580    81303    80777    80962    81302    81346    81344    81933    82591
    53581    80812    80802    80787    80823    81445    81385    81387    81476
    53582    80823    80787    80827    80852    81387    81388    81525    81512
    53583    81311    80785    80782    81310    81380    81365    81368    82599
    53584    80785    80959    80783    80782    81378    81370    81364    81365
    53585    81312    80778    80785    81311    81351    81347    81380    82600
    53586    80953    80950    80772    80961    81903    81318    81319    81912
    53587    80961    80772    80795    80951    81319    81317    81422    81907
    53588    81294    80961    80951    81292    81930    81907    81909    82581
    53589    81295    80953    80961    81294    81914    81912    81930    82583
    53590    80950    80953    80786    80773    81903    81382    81322    81324
    53591    80790    80773    80786    80802    81323    81322    81381    81400
    53592    80774    80787    80802    80786    81330    81385    81381    81329
    53593    80879    80899    80876    80859    81688    81676    81625    81626
! ... 215 like lines cut
secnum,1    ! reset the section ID to default
MAT,8 $ TYPE,8 $ REAL,8 $ SECNUM,8 $ ESYS,0
eblock,11,COMPACT,,234
(11i9)
    53808    80962    80775    80796    80963    81336    81334    81426    81931
    53809    80963    80796    80799    80780    81426    81424    81356    81357
    53810    81300    80963    80780    81301    81935    81357    81359    82588
    53811    80962    80963    81300    81302    81931    81935    82589    81933
    53812    80775    80797    80957    80776    81335    81429    81339    81333
    53813    80962    80777    80797    80775    81344    81342    81335    81336
    53814    81303    80777    80962    81302    81346    81344    81933    82591
    53815    80812    80802    80787    80823    81445    81385    81387    81476
    53816    80823    80787    80827    80852    81387    81388    81525    81512
    53817    81311    80785    80782    81310    81380    81365    81368    82599
    53818    80785    80959    80783    80782    81378    81370    81364    81365
    53819    81312    80778    80785    81311    81351    81347    81380    82600
    53820    80953    80950    80772    80961    81903    81318    81319    81912
    53821    80961    80772    80795    80951    81319    81317    81422    81907
    53822    81294    80961    80951    81292    81930    81907    81909    82581
    53823    81295    80953    80961    81294    81914    81912    81930    82583
    53824    80950    80953    80786    80773    81903    81382    81322    81324
    53825    80790    80773    80786    80802    81323    81322    81381    81400
    53826    80774    80787    80802    80786    81330    81385    81381    81329
    53827    80879    80899    80876    80859    81688    81676    81625    81626
! ... 215 like lines cut
secnum,1    ! reset the section ID to default
MAT,8 $ TYPE,8 $ REAL,9 $ SECNUM,8 $ ESYS,0
eblock,11,COMPACT,,356
(11i9)
    54042    82835    82852    82862    82862    84183    84349    82862    84184
    54043    82829    82951    82904    82904    84132    84689    82904    84128
    54044    82837    82953    82883    82883    84208    84580    82883    84204
    54045    82841    82871    82859    82859    84244    84407    82859    84243
    54046    82871    82893    82950    82950    84496    84636    82950    84498
    54047    82850    82926    82868    82868    84334    84473    82868    84331
    54048    82830    82904    82881    82881    84139    84565    82881    84137
    54049    82828    82882    82867    82867    84118    84464    82867    84116
    54050    82829    82928    82948    82948    84130    84794    82948    84131
    54051    82834    82845    82872    82872    84175    84285    82872    84177
    54052    82836    82902    82840    82840    84198    84237    82840    84193
    54053    82852    82927    82918    82918    84352    84754    82918    84351
    54054    82835    82905    82868    82868    84187    84471    82868    84185
    54055    82836    82853    82858    82858    84194    84359    82858    84195
    54056    82847    82884    82855    82855    84304    84377    82855    84303
    54057    82836    82858    82875    82875    84195    84401    82875    84196
    54058    82836    82840    82853    82853    84193    84234    82853    84194
    54059    82828    82855    82884    82884    84115    84377    82884    84119
    54060    82837    82946    82953    82953    84207    84869    82953    84208
    54061    82872    82936    82929    82929    84506    84800    82929    84505
! ... 337 like lines cut
secnum,1    ! reset the section ID to default
MAT,9 $ TYPE,9 $ REAL,8 $ SECNUM,9 $ ESYS,0
eblock,11,COMPACT,,356
(11i9)
    54398    82835    82852    82862    82862    84183    84349    82862    84184
    54399    82829    82951    82904    82904    84132    84689    82904    84128
    54400    82837    82953    82883    82883    84208    84580    82883    84204
    54401    82841    82871    82859    82859    84244    84407    82859    84243
    54402    82871    82893    82950    82950    84496    84636    82950    84498
    54403    82850    82926    82868    82868    84334    84473    82868    84331
    54404    82830    82904    82881    82881    84139    84565    82881    84137
    54405    82828    82882    82867    82867    84118    84464    82867    84116
    54406    82829    82928    82948    82948    84130    84794    82948    84131
    54407    82834    82845    82872    82872    84175    84285    82872    84177
    54408    82836    82902    82840    82840    84198    84237    82840    84193
    54409    82852    82927    82918    82918    84352    84754    82918    84351
    54410    82835    82905    82868    82868    84187    84471    82868    84185
    54411    82836    82853    82858    82858    84194    84359    82858    84195
    54412    82847    82884    82855    82855    84304    84377    82855    84303
    54413    82836    82858    82875    82875    84195    84401    82875    84196
    54414    82836    82840    82853    82853    84193    84234    82853    84194
    54415    82828    82855    82884    82884    84115    84377    82884    84119
    54416    82837    82946    82953    82953    84207    84869    82953    84208
    54417    82872    82936    82929    82929    84506    84800    82929    84505
! ... 337 like lines cut
secnum,1    ! reset the section ID to default
keyo,cid,8,2               ! auto create asymmetric contact (from Program Controlled setting)
keyo,cid,10,0              ! adjust contact stiffness each NR iteration (from Program Controlled setting)
keyo,cid,12,5              ! bonded always
keyo,cid,18,1              ! small sliding turned on by application
keyo,cid,2,2               ! MPC for bonded contacts (from Program Controlled setting)
keyo,tid,5,0               ! Automatic constraint type detection
keyo,cid,4,2               ! on nodal point - normal to target surface (from Program Controlled setting)
keyo,cid,9,1               ! ignore initial gaps/penetration
keyo,cid,7,0               ! No Prediction
rmod,tid,3,10.      ! FKN
rmod,tid,5,0.       ! ICONT
rmod,tid,6,0.       ! PINB
rmod,tid,10,0.      ! CNOF
rmod,tid,12,0.      ! FKT
rmod,tid,36,1501    ! WB DSID
rmod,cid,3,10.      ! FKN
rmod,cid,5,0.       ! ICONT
rmod,cid,6,0.       ! PINB
rmod,cid,10,0.      ! CNOF
rmod,cid,12,0.      ! FKT
rmod,cid,36,1501    ! WB DSID
nsel,all
esel,all
/wb,contact,end            !  done creating contacts
/golist
/wb,load,start             !  starting to send loads
/com,*********** Fixed Supports ***********
CMBLOCK,_FIXEDSU,NODE,      145
(8i10)
     67614     67616    -67628     67630    -67643     67647    -67660     67663
    -67674     67768    -67775     68178    -68221     78535     78536     78545
     78546     78548    -78551     78554     78559     78562     78564     78569
    -78572     78576     78578     78581    -78583     78587     78589     78594
    -78596     78600     78601     78605    -78607     78611     78613     78617
     78618     78621    -78623     78626     78637     78638     78640     78641
     78644     78648     78652     78653     78655     78659     78661     78666
     78667     78669     78672     78673     78676    -78678     78682     78683
     78685     78689     78691     78695     78696     78698     78702     78703
     78705     78709     78711     78715     78716     78719     78722     78741
     78742     78744     78745     78748     78752     78757     78758     78761
     78767     78768     78773    -78775     78779     78781     78785     78786
     78788     78792     78793     78795     78799     78800     78803    -78805
     78809     78811     78816     78817     78819     78823     78824     78827
     78831     78845    -78847     78851    -78853     78856     78857     78859
    -78879     78883     78884     79205     79210     79218     79220     79223
     79225     79233     79238     80596    -80649     80651    -80663     80665
    -80679     80681    -80691     80694     80702    -80706     80708    -80710
     80716
cmsel,s,_FIXEDSU
d,all,all
nsel,all
/com,*********** Define Force Using Surface Effect Elements ***********
local,12,0,0.,0.,0.,0.,0.,0.
csys,0
et,10,154
MAT,10 $ TYPE,10 $ REAL,10 $ SECNUM,10 $ ESYS,12
eblock,11,COMPACT,,322
(11i9)
    54754    82964    82984    82968    82968    84948    84970    82968    84947
    54755    82962    83019    83054    83054    84939    85160    83054    84940
    54756    82980    83057    82996    82996    85034    85098    82996    85031
    54757    82964    82968    83037    83037    84947    84974    83037    84952
    54758    82962    83054    83017    83017    84940    85156    83017    84938
    54759    82991    83006    83040    83040    85079    85128    83040    85080
    54760    82959    83067    83015    83015    84921    85152    83015    84917
    54761    82969    83025    83041    83041    84978    85167    83041    84980
    54762    82957    82987    83045    83045    84902    85063    83045    84906
    54763    82978    83016    83034    83034    85022    85154    83034    85024
    54764    82972    82999    83032    83032    84992    85105    83032    84994
    54765    82973    83002    83033    83033    84998    85114    83033    84999
    54766    82961    82980    82996    82996    84928    85031    82996    84929
    54767    82961    82997    82980    82980    84930    85032    82980    84928
    54768    82970    83069    82973    82973    84986    85001    82973    84982
    54769    82958    83029    83012    83012    84912    85144    83012    84911
    54770    82978    83034    83041    83041    85024    85181    83041    85026
    54771    82974    82999    83066    83066    85003    85107    83066    85007
    54772    82974    83066    83058    83058    85007    85201    83058    85005
    54773    82958    83012    83036    83036    84911    85145    83036    84913
! ... 303 like lines cut
secnum,1    ! reset the section ID to default
esel,s,type,,10
keyop,10,2,1        ! Apply load in local coordinate system
keyop,10,7,1        ! Use original area so load is constant in large deformation
esel,all
/gst,on,on
fini
*get,_numnode,node,0,count
*get,_numelem,elem,0,count
*get, _MAXELEMNUM, elem, 0, NUM, MAX
*get, _MAXNODENUM, node, 0, NUM, MAX
*get, _MAXELEMTYPE, etyp, 0, NUM, MAX
*get, _MAXREALCONST, rcon, 0, NUM, MAX
/go
/wb,load,end               !  done creating loads
/com,--- Number of total nodes = %_numnode%
/com,--- Number of contact elements = 2438
/com,--- Number of spring elements = 0
/com,--- Number of bearing elements = 0
/com,--- Number of solid elements = 8274
/com,--- Number of condensed parts = 0
/com,--- Number of total elements = %_numelem%
*get,_wallbsol,active,,time,wall
/com,****************************************************************************
/com,*************************    SOLUTION       ********************************
/com,****************************************************************************
/solu
antype,0                   ! static analysis
_thickRatio=  0     ! Ratio of thick parts in the model
eqsl,sparse,,,,,1
cntr,print,1               ! print out contact info and also make no initial contact an error
cncheck,dmp		!	Enable program controlled contact splitting for distributed memory parallel run
dmpoption,emat,no             ! Don't combine emat file for DANSYS
dmpoption,esav,no             ! Don't combine esav file for DANSYS
nldiag,cont,iter           ! print out contact info each equilibrium iteration
rescontrol,,none                 ! Do not keep any restart files
/com,****************************************************
/com,******************* SOLVE FOR LS 1 OF 1 ****************
esel,s,type,,10
nsle
sfe,all,1,pres,1,2.41196282298675e-032
sfe,all,2,pres,1,1.96951725377974e-016
sfe,all,3,pres,1,-0.2984116935038
nsel,all
esel,all
/nopr
/gopr
nsub,1,1,1
time,1.
outres,erase
outres,all,none
outres,nsol,all,
outres,rsol,all
outres,eangl,all
outres,etmp,all
outres,veng,all
outres,strs,all,
outres,epel,all,
outres,eppl,all,
outres,cont,all,
! *********** WB SOLVE COMMAND ***********
! check interactive state
*get,ANSINTER_,active,,int
*if,ANSINTER_,ne,0,then
/eof
*endif
solve
/com *************** Write FE CONNECTORS ********* 
CEWRITE,file,ce,,INTE
/com,****************************************************
/com,*************** FINISHED SOLVE FOR LS 1 *************
*get,_wallasol,active,,time,wall
/nopr
*get,_numnode,node,0,count
*get,_numelem,elem,0,count
*get, _MAXELEMNUM, elem, 0, NUM, MAX
*get, _MAXNODENUM, node, 0, NUM, MAX,,,INTERNAL
*get, _MAXELEMTYPE, etyp, 0, NUM, MAX
*get, _MAXREALCONST, rcon, 0, NUM, MAX
*get,_NSOLTHREADS,active,0,ntfs
*get,_NSOLPROCESSES,active,0,npfs
/gopr
/post1
xmlo,ENCODING,ISO-8859-1
xmlo,parm
/xml,parm,xml
fini
/gopr
*get,_walldone,active,,time,wall
_preptime=(_wallbsol-_wallstrt)*3600
_solvtime=(_wallasol-_wallbsol)*3600
_posttime=(_walldone-_wallasol)*3600
_totaltim=(_walldone-_wallstrt)*3600
*get,_dlbratio,active,0,solu,dlbr
*get,_combtime,active,0,solu,comb
*get,_ssmode,active,0,solu,ssmm
*get,_ndofs,active,0,solu,ndof
*get,_sol_end_time,active,0,set,time
*if,_sol_end_time,eq,1.000000,then
/fclean				!clean distributed files
*endif
/com,--- Total number of nodes = %_numnode%
/com,--- Total number of elements = %_numelem%
/com,--- Element load balance ratio = %_dlbratio%
/com,--- Time to combine distributed files = %_combtime%
/com,--- Sparse memory mode = %_ssmode%
/com,--- Number of DOF = %_ndofs%
/wb,file,end               ! done with WB generated input
