/batch
/config,noeldb,1     ! force off writing results to database
*get,_wallstrt,active,,time,wall
! ANSYS input file written by Workbench version 2025 R2
! File used for geometry attach: C:\Users\andre\Desktop\PBLE00\Projeto-Ansys\Projeto_files\dp0\SYS-3\DM\SYS-3.scdocx
/title,Projeto--Static Structural (C5)
! ****** Begin Custom Load Command Snippet ******
/COM, ACT Extensions:
/COM,     LSDYNA, 2025.2
/COM,     5f463412-bd3e-484b-87e7-cbc0a665e474, wbex
/COM,/COM,     ANSYSMotion, 2025.2
/COM,     20180725-3f81-49eb-9f31-41364844c769, wbex
/COM,
! ****** End   Custom Load Command Snippet ******
*DIM,_wb_ProjectScratch_dir,string,248
_wb_ProjectScratch_dir(1) = 'C:\Users\andre\Desktop\PBLE00\Projeto-Ansys\_ProjectScratch\Scr65F7\'
*DIM,_wb_SolverFiles_dir,string,248
_wb_SolverFiles_dir(1) = 'C:\Users\andre\Desktop\PBLE00\Projeto-Ansys\Projeto_files\dp0\SYS-3\MECH\'
*DIM,_wb_userfiles_dir,string,248
_wb_userfiles_dir(1) = 'C:\Users\andre\Desktop\PBLE00\Projeto-Ansys\Projeto_files\user_files\'
/com,--- Data in consistent NMM units. See Solving Units in the help system for more information.
/units,MPA
/nopr
/wb,file,start              !  signify a WB generated input file
/prep7
! Turn off shape checking because checks already performed inside WB mesher.
! See help system for more information.
SHPP,OFF,,NOWARN
/nolist
etcon,set             ! allow ANSYS to choose best KEYOP's for 180x elements, resets any applicable keyopt to MAPDL defaults
/com,*********** Send User Defined Coordinate System(s) ***********
csys,0
/com,*********** Nodes for the whole assembly ***********
nblock,3,,21370
(1i9,3e20.9e3)
    82484     1.442046218E+02    -1.055542372E+02     1.389500000E+01
    82485     1.470749102E+02    -1.055031402E+02     1.389500000E+01
    82486     1.469050902E+02    -1.103884806E+02     1.389500000E+01
    82487     1.449312954E+02    -1.016444419E+02     1.389500000E+01
    82488     1.452762597E+02    -1.006092231E+02     1.389500000E+01
    82489     1.465784411E+02    -1.027824537E+02     1.389500000E+01
    82490     1.469875210E+02    -9.938137041E+01     1.389500000E+01
    82491     1.441297428E+02    -1.001790475E+02     1.389500000E+01
    82492     1.437437420E+02    -1.040366182E+02     1.389500000E+01
    82493     1.454062753E+02    -1.110359482E+02     1.389500000E+01
    82494     1.453420813E+02    -9.726951043E+01     1.389500000E+01
    82495     1.446525119E+02    -9.516492578E+01     1.389500000E+01
    82496     1.426452632E+02    -9.558981449E+01     1.389500000E+01
    82497     1.470875275E+02    -9.776075702E+01     1.389500000E+01
    82498     1.476743998E+02    -1.085060079E+02     1.389500000E+01
    82499     1.486293491E+02    -1.123118051E+02     1.389500000E+01
    82500     1.437607150E+02    -1.106540105E+02     1.389500000E+01
    82501     1.405667002E+02    -1.106976593E+02     1.389500000E+01
    82502     1.498134841E+02    -1.060112933E+02     1.389500000E+01
    82503     1.407608977E+02    -1.082429226E+02     1.389500000E+01
! ... 19409 like lines cut
/wb,elem,start            !  set before creation of elements
/com,*********** Elements for Body 1 'SYS-3\Solid1' ***********
et,1,187
MAT,1 $ TYPE,1 $ REAL,1 $ SECNUM,1 $ ESYS,0
eblock,11,COMPACT,,6868
(11i9)
    16220    66051    68420    66996    66932    70500    75867    70498    70496    75624    75621
    16221    66051    68420    66052    66996    70500    70507    70493    70498    75867    70505
    16222    66051    68420    66120    66052    70500    70891    70495    70493    70507    70504
    16223    66051    66932    66120    68420    70496    70889    70495    70500    75624    70891
    16224    66932    68420    66996    67000    75624    75867    75621    75622    75877    75865
    16225    66052    66996    68420    67000    70505    75867    70507    70506    75865    75877
    16226    66120    68420    66932    66933    70891    75624    70889    70890    75630    75620
    16227    66933    67000    66991    68420    75628    75854    75627    75630    75877    75855
    16228    66068    68420    66991    67000    70603    75855    70599    70602    75877    75854
    16229    66932    68420    67000    66933    75624    75877    75622    75620    75630    75628
    16230    66067    68420    66991    66068    70596    75855    70594    70588    70603    70599
    16231    66119    68420    66120    66933    70888    70891    70884    70885    75630    70890
    16232    66052    68420    66120    66119    70507    70891    70504    70503    70888    70884
    16233    66052    66068    67000    68420    70502    70602    70506    70507    70603    75877
    16234    66067    68420    66119    66933    70596    70888    70591    70592    75630    70885
    16235    66067    66068    66119    68420    70588    70598    70591    70596    70603    70888
    16236    66052    68420    66119    66068    70507    70888    70503    70502    70603    70598
    16237    66057    68419    66984    66920    70537    75835    70535    70533    75579    75576
    16238    66057    66984    68419    66058    70535    75835    70537    70531    70543    70545
    16239    66920    66984    66988    68419    75576    75833    75577    75579    75835    75846
! ... 6849 like lines cut
secnum,1    ! reset the section ID to default
! Material Id = {28577F32-60E0-4D5B-9851-0767A3F70773}
/com,*********** Elements for Body 2 'SYS-3\Solid' ***********
et,2,186
keyo,2,2,1          ! set full integration on SOLID186
MAT,2 $ TYPE,2 $ REAL,2 $ SECNUM,2 $ ESYS,0
eblock,11,COMPACT,,234
(11i9)
    24276    82487    82674    82675    82508    82864    82677    82676    82843    83048    83643
    83138    83046    83653    83648    83649    84043    83049    83644    83646    83139
    24277    82492    82511    82508    82675    82859    82840    82843    82676    83068    83136
    83138    83069    84038    84036    83649    83650    83070    83148    83139    83646
    24278    82492    82675    83012    83013    82859    82676    82882    82876    83069    83647
    84300    83071    83650    83651    84093    84066    83070    83646    84106    84094
    24279    82674    83014    83012    82675    82677    82883    82882    82676    83645    84301
    83647    83643    83654    84105    83651    83648    83644    84107    84106    83646
    24280    82487    82488    82669    82509    82864    82863    82682    82842    83045    83051
    83141    83047    84071    83674    83672    84041    83049    83052    83635    83142
    24281    82487    82509    82489    82674    82864    82842    82862    82677    83047    83054
    83056    83048    84041    84040    83652    83653    83049    83142    83057    83644
    24282    82489    83015    83014    82674    82862    82881    82883    82677    83058    84303
    83645    83056    84070    84103    83654    83652    83057    84104    84107    83644
    24283    82499    82514    82524    82535    82852    82837    82827    82816    83097    83157
    83188    83099    84032    84010    83987    83988    83101    83158    83189    83225
    24284    82499    82535    82564    82539    82852    82816    82787    82812    83099    83224
    83237    83100    83988    83922    83921    83980    83101    83225    83315    83238
    24285    82494    82497    83023    83022    82857    82854    82873    82875    83077    83092
    84311    83080    84057    84059    84087    84062    83079    83091    84088    84091
! ... 449 like lines cut
secnum,1    ! reset the section ID to default
! Material Id = {83550A1D-A421-41EC-8CBE-828A91A24115}
/com,*********** Elements for Body 3 'SYS-3\Solid11' ***********
et,3,187
MAT,3 $ TYPE,3 $ REAL,3 $ SECNUM,3 $ ESYS,0
eblock,11,COMPACT,,1172
(11i9)
    24510    84327    84331    84576    84787    84859    84872    84860    84862    84875    86160
    24511    84319    84787    84331    84327    84825    84875    84821    84819    84862    84859
    24512    84327    84576    84577    84787    84860    86153    84861    84862    86160    86166
    24513    84319    84577    84787    84327    84822    86166    84825    84819    84861    84862
    24514    84331    84787    84782    84657    84875    86917    84874    84873    86579    86578
    24515    84576    84782    84787    84657    86158    86917    86160    86155    86578    86579
    24516    84331    84576    84787    84657    84872    86160    84875    84873    86155    86579
    24517    84319    84331    84787    84323    84821    84875    84825    84818    84838    84841
    24518    84576    84706    84577    84787    86156    86164    86153    86160    86804    86166
    24519    84323    84782    84331    84787    84840    84874    84838    84841    86917    84875
    24520    84319    84787    84706    84323    84825    86804    84824    84818    84841    84839
    24521    84323    84706    84782    84787    84839    86802    84840    84841    86804    86917
    24522    84576    84782    84706    84787    86158    86802    86156    86160    86917    86804
    24523    84341    84577    84576    84786    84936    86153    84935    84937    86165    86159
    24524    84576    84577    84706    84786    86153    86164    86156    86159    86165    86803
    24525    84333    84786    84577    84341    84891    86165    84888    84885    84937    84936
    24526    84341    84576    84344    84786    84935    84950    84933    84937    86159    84954
    24527    84344    84576    84626    84786    84950    86154    84951    84954    86159    86451
    24528    84576    84756    84626    84786    86157    86448    86154    86159    86899    86451
    24529    84626    84786    84756    84783    86451    86899    86448    86450    86918    86898
! ... 1153 like lines cut
secnum,1    ! reset the section ID to default
! Material Id = {E925692C-C2E6-4328-AB3B-6EE6612EA7F8}
/wb,elem,end               !  done creating elements
toffst,273.15,      ! Temperature offset from absolute zero
/com,*********** Set Reference Temperature ***********
tref,22.
/wb,mat,start              !  starting to send materials
/com,*********** Send Materials ***********
Temperature = 'TEMP' ! Temperature
MP,DENS,1,9.034e-10,	! tonne mm^-3
MP,EX,1,1461,	! tonne s^-2 mm^-1
MP,NUXY,1,0.4087,
MP,ALPX,1,9.909e-05,	! C^-1
MP,KXX,1,0.209,	! tonne mm s^-3 C^-1
MP,C,1,1600000000,	! mm^2 s^-2 C^-1
MP,RSVX,1,1e+19,	! ohm mm
MP,LSST,1,0.0002,
MP,PERX,1,2.2,
MP,UVID,1,0d424e2c-0bfa-4d16-98f2-3d82c5736ae7
MP,UMID,1,5608350a-b010-4b71-8187-140619865111

Temperature = 'TEMP' ! Temperature
MP,DENS,2,7.85e-09,	! tonne mm^-3
MP,ALPX,2,1.2e-05,	! C^-1
MP,C,2,434000000,	! mm^2 s^-2 C^-1
MP,KXX,2,60.5,	! tonne mm s^-3 C^-1
MP,RSVX,2,0.00017,	! ohm mm
MP,EX,2,200000,	! tonne s^-2 mm^-1
MP,NUXY,2,0.3,
MP,MURX,2,10000,
MP,UVID,2,fa42a8ae-f5db-4b89-bdc6-00f33fa7b55f
MP,UMID,2,59002a79-71c2-428e-906b-55d7dbee100e

Temperature = 'TEMP' ! Temperature
MP,DENS,3,9.034e-10,	! tonne mm^-3
MP,EX,3,1461,	! tonne s^-2 mm^-1
MP,NUXY,3,0.4087,
MP,ALPX,3,9.909e-05,	! C^-1
MP,KXX,3,0.209,	! tonne mm s^-3 C^-1
MP,C,3,1600000000,	! mm^2 s^-2 C^-1
MP,RSVX,3,1e+19,	! ohm mm
MP,LSST,3,0.0002,
MP,PERX,3,2.2,
MP,UVID,3,0d424e2c-0bfa-4d16-98f2-3d82c5736ae7
MP,UMID,3,5608350a-b010-4b71-8187-140619865111

/wb,mat,end                !  done sending materials
!************************* Model Summary ********************
!SYS-3\Solid1,	Plastic, PP (homopolymer, low flow),	matid,	1
!SYS-3\Solid,	Structural Steel,	matid,	2
!SYS-3\Solid11,	Plastic, PP (homopolymer, low flow),	matid,	3
!************************* End Model Summary ********************
! get the diagonal of the bounding box. Needed later for other things
*get,_xmin,node,,mnloc,x
*get,_ymin,node,,mnloc,y
*get,_zmin,node,,mnloc,z
*get,_xmax,node,,mxloc,x
*get,_ymax,node,,mxloc,y
*get,_zmax,node,,mxloc,z
_ASMDIAG=(_xmax-_xmin)*(_xmax-_xmin)+(_ymax-_ymin)*(_ymax-_ymin)+(_zmax-_zmin)*(_zmax-_zmin)
_ASMDIAG=SQRT(_ASMDIAG)
/wb,contact,start          !  starting to send contact
/com,*********** Create Contact "Contact Region" ***********
/com,            Real Constant Set For Above Contact Is 5 & 4 
*set,tid,5
*set,cid,4
r,tid
r,cid
et,tid,170
et,cid,174
MAT,5 $ TYPE,5 $ REAL,5 $ SECNUM,5 $ ESYS,0
eblock,11,COMPACT,,145
(11i9)
    52646    67509    67538    67510    67510    77831    77834    67510    77829
    52647    67509    67537    67538    67538    77830    77976    67538    77831
    52648    67508    67537    67509    67509    77826    77830    67509    77824
    52649    67534    67757    67535    67535    77964    77971    67535    77961
    52650    65844    65849    67547    67547    68952    69004    67547    68955
    52651    67529    67757    67756    67756    77938    79163    67756    77937
    52652    67510    67538    67539    67539    77834    77978    67539    77835
    52653    67508    67536    67537    67537    77825    77974    67537    77826
    52654    67534    67756    67757    67757    77963    79163    67757    77964
    52655    67541    67542    68149    68149    77983    77987    68149    77984
    52656    67541    68159    67540    67540    77985    77982    67540    77981
    52657    67535    67536    68150    68150    77970    77975    68150    77972
    52658    67508    68150    67536    67536    77827    77975    67536    77825
    52659    67534    67535    68150    68150    77961    77972    68150    77967
    52660    67543    67544    68153    68153    77990    77994    68153    77991
    52661    67542    68153    68149    68149    77988    80534    68149    77987
    52662    67542    67543    68153    68153    77986    77991    68153    77988
    52663    67545    67546    68155    68155    77997    78000    68155    77998
    52664    67544    68155    68153    68153    77995    80549    68153    77994
    52665    67544    67545    68155    68155    77993    77998    68155    77995
! ... 126 like lines cut
secnum,1    ! reset the section ID to default
MAT,4 $ TYPE,4 $ REAL,4 $ SECNUM,4 $ ESYS,0
eblock,11,COMPACT,,145
(11i9)
    52791    67509    67538    67510    67510    77831    77834    67510    77829
    52792    67509    67537    67538    67538    77830    77976    67538    77831
    52793    67508    67537    67509    67509    77826    77830    67509    77824
    52794    67534    67757    67535    67535    77964    77971    67535    77961
    52795    65844    65849    67547    67547    68952    69004    67547    68955
    52796    67529    67757    67756    67756    77938    79163    67756    77937
    52797    67510    67538    67539    67539    77834    77978    67539    77835
    52798    67508    67536    67537    67537    77825    77974    67537    77826
    52799    67534    67756    67757    67757    77963    79163    67757    77964
    52800    67541    67542    68149    68149    77983    77987    68149    77984
    52801    67541    68159    67540    67540    77985    77982    67540    77981
    52802    67535    67536    68150    68150    77970    77975    68150    77972
    52803    67508    68150    67536    67536    77827    77975    67536    77825
    52804    67534    67535    68150    68150    77961    77972    68150    77967
    52805    67543    67544    68153    68153    77990    77994    68153    77991
    52806    67542    68153    68149    68149    77988    80534    68149    77987
    52807    67542    67543    68153    68153    77986    77991    68153    77988
    52808    67545    67546    68155    68155    77997    78000    68155    77998
    52809    67544    68155    68153    68153    77995    80549    68153    77994
    52810    67544    67545    68155    68155    77993    77998    68155    77995
! ... 126 like lines cut
secnum,1    ! reset the section ID to default
MAT,4 $ TYPE,4 $ REAL,5 $ SECNUM,4 $ ESYS,0
eblock,11,COMPACT,,56
(11i9)
    52936    82962    82961    82946    82947    84250    84234    84233    84235
    52937    82961    82960    82945    82946    84249    84232    84231    84234
    52938    82960    82959    82944    82945    84248    84230    84229    84232
    52939    82959    82958    82943    82944    84247    84228    84227    84230
    52940    82958    82957    82942    82943    84246    84226    84225    84228
    52941    82957    82956    82941    82942    84245    84224    84223    84226
    52942    82956    82955    82940    82941    84244    84222    84221    84224
    52943    82955    82954    82939    82940    84243    84220    84219    84222
    52944    82954    82953    82938    82939    84242    84218    84217    84220
    52945    82953    82952    82937    82938    84241    84216    84215    84218
    52946    82952    82951    82936    82937    84240    84214    84213    84216
    52947    82951    82950    82935    82936    84239    84212    84211    84214
    52948    82950    82949    82934    82935    84238    84210    84209    84212
    52949    82949    82948    82933    82934    84236    84208    84207    84210
    52950    82948    82963    82932    82933    84237    84206    84205    84208
    52951    82931    82930    82977    82978    84202    84203    84267    84204
    52952    82930    82929    82976    82977    84200    84201    84266    84203
    52953    82929    82928    82975    82976    84198    84199    84265    84201
    52954    82928    82927    82974    82975    84196    84197    84264    84199
    52955    82927    82926    82973    82974    84194    84195    84263    84197
! ... 37 like lines cut
secnum,1    ! reset the section ID to default
MAT,5 $ TYPE,5 $ REAL,4 $ SECNUM,5 $ ESYS,0
eblock,11,COMPACT,,56
(11i9)
    52992    82962    82961    82946    82947    84250    84234    84233    84235
    52993    82961    82960    82945    82946    84249    84232    84231    84234
    52994    82960    82959    82944    82945    84248    84230    84229    84232
    52995    82959    82958    82943    82944    84247    84228    84227    84230
    52996    82958    82957    82942    82943    84246    84226    84225    84228
    52997    82957    82956    82941    82942    84245    84224    84223    84226
    52998    82956    82955    82940    82941    84244    84222    84221    84224
    52999    82955    82954    82939    82940    84243    84220    84219    84222
    53000    82954    82953    82938    82939    84242    84218    84217    84220
    53001    82953    82952    82937    82938    84241    84216    84215    84218
    53002    82952    82951    82936    82937    84240    84214    84213    84216
    53003    82951    82950    82935    82936    84239    84212    84211    84214
    53004    82950    82949    82934    82935    84238    84210    84209    84212
    53005    82949    82948    82933    82934    84236    84208    84207    84210
    53006    82948    82963    82932    82933    84237    84206    84205    84208
    53007    82931    82930    82977    82978    84202    84203    84267    84204
    53008    82930    82929    82976    82977    84200    84201    84266    84203
    53009    82929    82928    82975    82976    84198    84199    84265    84201
    53010    82928    82927    82974    82975    84196    84197    84264    84199
    53011    82927    82926    82973    82974    84194    84195    84263    84197
! ... 37 like lines cut
secnum,1    ! reset the section ID to default
keyo,cid,8,2               ! auto create asymmetric contact (from Program Controlled setting)
keyo,cid,10,0              ! adjust contact stiffness each NR iteration (from Program Controlled setting)
keyo,cid,12,5              ! bonded always
keyo,cid,18,1              ! small sliding turned on by application
keyo,cid,2,2               ! MPC for bonded contacts (from Program Controlled setting)
keyo,tid,5,0               ! Automatic constraint type detection
keyo,cid,4,2               ! on nodal point - normal to target surface (from Program Controlled setting)
keyo,cid,9,1               ! ignore initial gaps/penetration
keyo,cid,7,0               ! No Prediction
rmod,tid,3,10.      ! FKN
rmod,tid,5,0.       ! ICONT
rmod,tid,6,0.       ! PINB
rmod,tid,10,0.      ! CNOF
rmod,tid,12,0.      ! FKT
rmod,tid,36,1487    ! WB DSID
rmod,cid,3,10.      ! FKN
rmod,cid,5,0.       ! ICONT
rmod,cid,6,0.       ! PINB
rmod,cid,10,0.      ! CNOF
rmod,cid,12,0.      ! FKT
rmod,cid,36,1487    ! WB DSID
/com,*********** Create Contact "Contact Region 2" ***********
/com,            Real Constant Set For Above Contact Is 7 & 6 
*set,tid,7
*set,cid,6
r,tid
r,cid
et,tid,170
et,cid,174
MAT,7 $ TYPE,7 $ REAL,7 $ SECNUM,7 $ ESYS,0
eblock,11,COMPACT,,157
(11i9)
    53048    66219    66217    66223    66223    71400    71403    66223    71415
    53049    66218    66221    66222    66222    71408    71424    66222    71409
    53050    66217    66219    66221    66221    71400    71413    66221    71402
    53051    66221    66219    66222    66222    71413    71414    66222    71424
    53052    66217    66220    66223    66223    71401    71419    66223    71403
    53053    66217    66224    66220    66220    71404    71420    66220    71401
    53054    66252    66256    66251    66251    71621    71617    66251    71614
    53055    66250    66254    66253    66253    71612    71624    66253    71611
    53056    66251    66249    66254    66254    71604    71606    66254    71615
    53057    66251    66256    66249    66249    71617    71607    66249    71604
    53058    66251    66255    66252    66252    71616    71620    66252    71614
    53059    66254    66249    66253    66253    71606    71605    66253    71624
    53060    66237    66238    66234    66234    71525    71510    66234    71509
    53061    66235    66240    66239    66239    71516    71532    66239    71515
    53062    66233    66238    66237    66237    71504    71525    66237    71503
    53063    66238    66240    66235    66235    71529    71516    66235    71514
    53064    66236    66239    66240    66240    71520    71532    66240    71521
    53065    66240    66238    66233    66233    71529    71504    66233    71505
    53066    66684    67451    67741    67741    74495    77549    67741    74498
    53067    66679    67456    67455    67455    74468    77561    67455    74467
! ... 138 like lines cut
secnum,1    ! reset the section ID to default
MAT,6 $ TYPE,6 $ REAL,6 $ SECNUM,6 $ ESYS,0
eblock,11,COMPACT,,157
(11i9)
    53205    66219    66217    66223    66223    71400    71403    66223    71415
    53206    66218    66221    66222    66222    71408    71424    66222    71409
    53207    66217    66219    66221    66221    71400    71413    66221    71402
    53208    66221    66219    66222    66222    71413    71414    66222    71424
    53209    66217    66220    66223    66223    71401    71419    66223    71403
    53210    66217    66224    66220    66220    71404    71420    66220    71401
    53211    66252    66256    66251    66251    71621    71617    66251    71614
    53212    66250    66254    66253    66253    71612    71624    66253    71611
    53213    66251    66249    66254    66254    71604    71606    66254    71615
    53214    66251    66256    66249    66249    71617    71607    66249    71604
    53215    66251    66255    66252    66252    71616    71620    66252    71614
    53216    66254    66249    66253    66253    71606    71605    66253    71624
    53217    66237    66238    66234    66234    71525    71510    66234    71509
    53218    66235    66240    66239    66239    71516    71532    66239    71515
    53219    66233    66238    66237    66237    71504    71525    66237    71503
    53220    66238    66240    66235    66235    71529    71516    66235    71514
    53221    66236    66239    66240    66240    71520    71532    66240    71521
    53222    66240    66238    66233    66233    71529    71504    66233    71505
    53223    66684    67451    67741    67741    74495    77549    67741    74498
    53224    66679    67456    67455    67455    74468    77561    67455    74467
! ... 138 like lines cut
secnum,1    ! reset the section ID to default
MAT,6 $ TYPE,6 $ REAL,7 $ SECNUM,6 $ ESYS,0
eblock,11,COMPACT,,110
(11i9)
    53362    84553    84583    84571    84571    85956    86119    84571    85955
    53363    84571    84620    84607    84607    86121    86357    84607    86120
    53364    84578    84631    84622    84622    86169    86422    84622    86168
    53365    84410    84460    84485    84485    85369    85585    84485    85371
    53366    84549    84595    84601    84601    85916    86290    84601    85917
    53367    84553    84571    84607    84607    85955    86120    84607    85958
    53368    84595    84613    84601    84601    86291    86323    84601    86290
    53369    84578    84599    84631    84631    86167    86316    84631    86169
    53370    84411    84486    84446    84446    85378    85519    84446    85377
    53371    84411    84500    84497    84497    85382    85723    84497    85381
    53372    84411    84446    84500    84500    85377    85521    84500    85382
    53373    84410    84503    84460    84460    85374    85586    84460    85369
    53374    84410    84496    84503    84503    85373    85720    84503    85374
    53375    84427    84484    84462    84462    85427    85593    84462    85426
    53376    84427    84462    84502    84502    85426    85594    84502    85431
    53377    84427    84502    84499    84499    85431    85727    84499    85430
    53378    84429    84664    84487    84487    85440    85692    84487    85438
    53379    84453    84454    84555    84555    85549    85558    84555    85552
    53380    84456    84457    84568    84568    85565    85573    84568    85568
    53381    84473    84474    84571    84571    85645    85651    84571    85648
! ... 91 like lines cut
secnum,1    ! reset the section ID to default
MAT,7 $ TYPE,7 $ REAL,6 $ SECNUM,7 $ ESYS,0
eblock,11,COMPACT,,110
(11i9)
    53472    84553    84583    84571    84571    85956    86119    84571    85955
    53473    84571    84620    84607    84607    86121    86357    84607    86120
    53474    84578    84631    84622    84622    86169    86422    84622    86168
    53475    84410    84460    84485    84485    85369    85585    84485    85371
    53476    84549    84595    84601    84601    85916    86290    84601    85917
    53477    84553    84571    84607    84607    85955    86120    84607    85958
    53478    84595    84613    84601    84601    86291    86323    84601    86290
    53479    84578    84599    84631    84631    86167    86316    84631    86169
    53480    84411    84486    84446    84446    85378    85519    84446    85377
    53481    84411    84500    84497    84497    85382    85723    84497    85381
    53482    84411    84446    84500    84500    85377    85521    84500    85382
    53483    84410    84503    84460    84460    85374    85586    84460    85369
    53484    84410    84496    84503    84503    85373    85720    84503    85374
    53485    84427    84484    84462    84462    85427    85593    84462    85426
    53486    84427    84462    84502    84502    85426    85594    84502    85431
    53487    84427    84502    84499    84499    85431    85727    84499    85430
    53488    84429    84664    84487    84487    85440    85692    84487    85438
    53489    84453    84454    84555    84555    85549    85558    84555    85552
    53490    84456    84457    84568    84568    85565    85573    84568    85568
    53491    84473    84474    84571    84571    85645    85651    84571    85648
! ... 91 like lines cut
secnum,1    ! reset the section ID to default
keyo,cid,8,2               ! auto create asymmetric contact (from Program Controlled setting)
keyo,cid,10,0              ! adjust contact stiffness each NR iteration (from Program Controlled setting)
keyo,cid,12,5              ! bonded always
keyo,cid,18,1              ! small sliding turned on by application
keyo,cid,2,2               ! MPC for bonded contacts (from Program Controlled setting)
keyo,tid,5,0               ! Automatic constraint type detection
keyo,cid,4,2               ! on nodal point - normal to target surface (from Program Controlled setting)
keyo,cid,9,1               ! ignore initial gaps/penetration
keyo,cid,7,0               ! No Prediction
rmod,tid,3,10.      ! FKN
rmod,tid,5,0.       ! ICONT
rmod,tid,6,0.       ! PINB
rmod,tid,10,0.      ! CNOF
rmod,tid,12,0.      ! FKT
rmod,tid,36,1498    ! WB DSID
rmod,cid,3,10.      ! FKN
rmod,cid,5,0.       ! ICONT
rmod,cid,6,0.       ! PINB
rmod,cid,10,0.      ! CNOF
rmod,cid,12,0.      ! FKT
rmod,cid,36,1498    ! WB DSID
/com,*********** Create Contact "Contact Region 3" ***********
/com,            Real Constant Set For Above Contact Is 9 & 8 
*set,tid,9
*set,cid,8
r,tid
r,cid
et,tid,170
et,cid,174
MAT,9 $ TYPE,9 $ REAL,9 $ SECNUM,9 $ ESYS,0
eblock,11,COMPACT,,234
(11i9)
    53582    82674    82487    82508    82675    83048    83046    83138    83643
    53583    82675    82508    82511    82492    83138    83136    83068    83069
    53584    83012    82675    82492    83013    83647    83069    83071    84300
    53585    82674    82675    83012    83014    83643    83647    84301    83645
    53586    82487    82509    82669    82488    83047    83141    83051    83045
    53587    82674    82489    82509    82487    83056    83054    83047    83048
    53588    83015    82489    82674    83014    83058    83056    83645    84303
    53589    82524    82514    82499    82535    83157    83097    83099    83188
    53590    82535    82499    82539    82564    83099    83100    83237    83224
    53591    83023    82497    82494    83022    83092    83077    83080    84311
    53592    82497    82671    82495    82494    83090    83082    83076    83077
    53593    83024    82490    82497    83023    83063    83059    83092    84312
    53594    82665    82662    82484    82673    83615    83030    83031    83624
    53595    82673    82484    82507    82663    83031    83029    83134    83619
    53596    83006    82673    82663    83004    83642    83619    83621    84293
    53597    83007    82665    82673    83006    83626    83624    83642    84295
    53598    82662    82665    82498    82485    83615    83094    83034    83036
    53599    82502    82485    82498    82514    83035    83034    83093    83112
    53600    82486    82499    82514    82498    83042    83097    83093    83041
    53601    82591    82611    82588    82571    83400    83388    83337    83338
! ... 215 like lines cut
secnum,1    ! reset the section ID to default
MAT,8 $ TYPE,8 $ REAL,8 $ SECNUM,8 $ ESYS,0
eblock,11,COMPACT,,234
(11i9)
    53816    82674    82487    82508    82675    83048    83046    83138    83643
    53817    82675    82508    82511    82492    83138    83136    83068    83069
    53818    83012    82675    82492    83013    83647    83069    83071    84300
    53819    82674    82675    83012    83014    83643    83647    84301    83645
    53820    82487    82509    82669    82488    83047    83141    83051    83045
    53821    82674    82489    82509    82487    83056    83054    83047    83048
    53822    83015    82489    82674    83014    83058    83056    83645    84303
    53823    82524    82514    82499    82535    83157    83097    83099    83188
    53824    82535    82499    82539    82564    83099    83100    83237    83224
    53825    83023    82497    82494    83022    83092    83077    83080    84311
    53826    82497    82671    82495    82494    83090    83082    83076    83077
    53827    83024    82490    82497    83023    83063    83059    83092    84312
    53828    82665    82662    82484    82673    83615    83030    83031    83624
    53829    82673    82484    82507    82663    83031    83029    83134    83619
    53830    83006    82673    82663    83004    83642    83619    83621    84293
    53831    83007    82665    82673    83006    83626    83624    83642    84295
    53832    82662    82665    82498    82485    83615    83094    83034    83036
    53833    82502    82485    82498    82514    83035    83034    83093    83112
    53834    82486    82499    82514    82498    83042    83097    83093    83041
    53835    82591    82611    82588    82571    83400    83388    83337    83338
! ... 215 like lines cut
secnum,1    ! reset the section ID to default
MAT,8 $ TYPE,8 $ REAL,9 $ SECNUM,8 $ ESYS,0
eblock,11,COMPACT,,356
(11i9)
    54050    84547    84564    84574    84574    85895    86061    84574    85896
    54051    84541    84663    84616    84616    85844    86401    84616    85840
    54052    84549    84665    84595    84595    85920    86292    84595    85916
    54053    84553    84583    84571    84571    85956    86119    84571    85955
    54054    84583    84605    84662    84662    86208    86348    84662    86210
    54055    84562    84638    84580    84580    86046    86185    84580    86043
    54056    84542    84616    84593    84593    85851    86277    84593    85849
    54057    84540    84594    84579    84579    85830    86176    84579    85828
    54058    84541    84640    84660    84660    85842    86506    84660    85843
    54059    84546    84557    84584    84584    85887    85997    84584    85889
    54060    84548    84614    84552    84552    85910    85949    84552    85905
    54061    84564    84639    84630    84630    86064    86466    84630    86063
    54062    84547    84617    84580    84580    85899    86183    84580    85897
    54063    84548    84565    84570    84570    85906    86071    84570    85907
    54064    84559    84596    84567    84567    86016    86089    84567    86015
    54065    84548    84570    84587    84587    85907    86113    84587    85908
    54066    84548    84552    84565    84565    85905    85946    84565    85906
    54067    84540    84567    84596    84596    85827    86089    84596    85831
    54068    84549    84658    84665    84665    85919    86581    84665    85920
    54069    84584    84648    84641    84641    86218    86512    84641    86217
! ... 337 like lines cut
secnum,1    ! reset the section ID to default
MAT,9 $ TYPE,9 $ REAL,8 $ SECNUM,9 $ ESYS,0
eblock,11,COMPACT,,356
(11i9)
    54406    84547    84564    84574    84574    85895    86061    84574    85896
    54407    84541    84663    84616    84616    85844    86401    84616    85840
    54408    84549    84665    84595    84595    85920    86292    84595    85916
    54409    84553    84583    84571    84571    85956    86119    84571    85955
    54410    84583    84605    84662    84662    86208    86348    84662    86210
    54411    84562    84638    84580    84580    86046    86185    84580    86043
    54412    84542    84616    84593    84593    85851    86277    84593    85849
    54413    84540    84594    84579    84579    85830    86176    84579    85828
    54414    84541    84640    84660    84660    85842    86506    84660    85843
    54415    84546    84557    84584    84584    85887    85997    84584    85889
    54416    84548    84614    84552    84552    85910    85949    84552    85905
    54417    84564    84639    84630    84630    86064    86466    84630    86063
    54418    84547    84617    84580    84580    85899    86183    84580    85897
    54419    84548    84565    84570    84570    85906    86071    84570    85907
    54420    84559    84596    84567    84567    86016    86089    84567    86015
    54421    84548    84570    84587    84587    85907    86113    84587    85908
    54422    84548    84552    84565    84565    85905    85946    84565    85906
    54423    84540    84567    84596    84596    85827    86089    84596    85831
    54424    84549    84658    84665    84665    85919    86581    84665    85920
    54425    84584    84648    84641    84641    86218    86512    84641    86217
! ... 337 like lines cut
secnum,1    ! reset the section ID to default
keyo,cid,8,2               ! auto create asymmetric contact (from Program Controlled setting)
keyo,cid,10,0              ! adjust contact stiffness each NR iteration (from Program Controlled setting)
keyo,cid,12,5              ! bonded always
keyo,cid,18,1              ! small sliding turned on by application
keyo,cid,2,2               ! MPC for bonded contacts (from Program Controlled setting)
keyo,tid,5,0               ! Automatic constraint type detection
keyo,cid,4,2               ! on nodal point - normal to target surface (from Program Controlled setting)
keyo,cid,9,1               ! ignore initial gaps/penetration
keyo,cid,7,0               ! No Prediction
rmod,tid,3,10.      ! FKN
rmod,tid,5,0.       ! ICONT
rmod,tid,6,0.       ! PINB
rmod,tid,10,0.      ! CNOF
rmod,tid,12,0.      ! FKT
rmod,tid,36,1501    ! WB DSID
rmod,cid,3,10.      ! FKN
rmod,cid,5,0.       ! ICONT
rmod,cid,6,0.       ! PINB
rmod,cid,10,0.      ! CNOF
rmod,cid,12,0.      ! FKT
rmod,cid,36,1501    ! WB DSID
nsel,all
esel,all
/wb,contact,end            !  done creating contacts
/golist
/wb,load,start             !  starting to send loads
/com,*********** Fixed Supports ***********
CMBLOCK,_FIXEDSU,NODE,      145
(8i10)
     67614     67616    -67628     67630    -67643     67647    -67660     67663
    -67674     67768    -67775     68178    -68221     78535     78536     78545
     78546     78548    -78551     78554     78559     78562     78564     78569
    -78572     78576     78578     78581    -78583     78587     78589     78594
    -78596     78600     78601     78605    -78607     78611     78613     78617
     78618     78621    -78623     78626     78637     78638     78640     78641
     78644     78648     78652     78653     78655     78659     78661     78666
     78667     78669     78672     78673     78676    -78678     78682     78683
     78685     78689     78691     78695     78696     78698     78702     78703
     78705     78709     78711     78715     78716     78719     78722     78741
     78742     78744     78745     78748     78752     78757     78758     78761
     78767     78768     78773    -78775     78779     78781     78785     78786
     78788     78792     78793     78795     78799     78800     78803    -78805
     78809     78811     78816     78817     78819     78823     78824     78827
     78831     78845    -78847     78851    -78853     78856     78857     78859
    -78879     78883     78884     79205     79210     79218     79220     79223
     79225     79233     79238     80596    -80649     80651    -80663     80665
    -80679     80681    -80691     80694     80702    -80706     80708    -80710
     80716
cmsel,s,_FIXEDSU
d,all,all
nsel,all
/com,*********** Define Force Using Surface Effect Elements ***********
local,12,0,0.,0.,0.,0.,0.,0.
csys,0
et,10,154
MAT,10 $ TYPE,10 $ REAL,10 $ SECNUM,10 $ ESYS,12
eblock,11,COMPACT,,322
(11i9)
    54762    84676    84696    84680    84680    86660    86682    84680    86659
    54763    84674    84731    84766    84766    86651    86872    84766    86652
    54764    84692    84769    84708    84708    86746    86810    84708    86743
    54765    84676    84680    84749    84749    86659    86686    84749    86664
    54766    84674    84766    84729    84729    86652    86868    84729    86650
    54767    84703    84718    84752    84752    86791    86840    84752    86792
    54768    84671    84779    84727    84727    86633    86864    84727    86629
    54769    84681    84737    84753    84753    86690    86879    84753    86692
    54770    84669    84699    84757    84757    86614    86775    84757    86618
    54771    84690    84728    84746    84746    86734    86866    84746    86736
    54772    84684    84711    84744    84744    86704    86817    84744    86706
    54773    84685    84714    84745    84745    86710    86826    84745    86711
    54774    84673    84692    84708    84708    86640    86743    84708    86641
    54775    84673    84709    84692    84692    86642    86744    84692    86640
    54776    84682    84781    84685    84685    86698    86713    84685    86694
    54777    84670    84741    84724    84724    86624    86856    84724    86623
    54778    84690    84746    84753    84753    86736    86893    84753    86738
    54779    84686    84711    84778    84778    86715    86819    84778    86719
    54780    84686    84778    84770    84770    86719    86913    84770    86717
    54781    84670    84724    84748    84748    86623    86857    84748    86625
! ... 303 like lines cut
secnum,1    ! reset the section ID to default
esel,s,type,,10
keyop,10,2,1        ! Apply load in local coordinate system
keyop,10,7,1        ! Use original area so load is constant in large deformation
esel,all
/gst,on,on
fini
*get,_numnode,node,0,count
*get,_numelem,elem,0,count
*get, _MAXELEMNUM, elem, 0, NUM, MAX
*get, _MAXNODENUM, node, 0, NUM, MAX
*get, _MAXELEMTYPE, etyp, 0, NUM, MAX
*get, _MAXREALCONST, rcon, 0, NUM, MAX
/go
/wb,load,end               !  done creating loads
/com,--- Number of total nodes = %_numnode%
/com,--- Number of contact elements = 2438
/com,--- Number of spring elements = 0
/com,--- Number of bearing elements = 0
/com,--- Number of solid elements = 8274
/com,--- Number of condensed parts = 0
/com,--- Number of total elements = %_numelem%
*get,_wallbsol,active,,time,wall
/com,****************************************************************************
/com,*************************    SOLUTION       ********************************
/com,****************************************************************************
/solu
antype,0                   ! static analysis
_thickRatio=  0     ! Ratio of thick parts in the model
eqsl,sparse,,,,,1
cntr,print,1               ! print out contact info and also make no initial contact an error
cncheck,dmp		!	Enable program controlled contact splitting for distributed memory parallel run
dmpoption,emat,no             ! Don't combine emat file for DANSYS
dmpoption,esav,no             ! Don't combine esav file for DANSYS
nldiag,cont,iter           ! print out contact info each equilibrium iteration
rescontrol,,none                 ! Do not keep any restart files
/com,****************************************************
/com,******************* SOLVE FOR LS 1 OF 1 ****************
esel,s,type,,10
nsle
sfe,all,1,pres,1,2.41196282298675e-032
sfe,all,2,pres,1,1.96951725377974e-016
sfe,all,3,pres,1,-0.2984116935038
nsel,all
esel,all
/nopr
/gopr
nsub,1,1,1
time,1.
outres,erase
outres,all,none
outres,nsol,all,
outres,rsol,all
outres,eangl,all
outres,etmp,all
outres,veng,all
outres,strs,all,
outres,epel,all,
outres,eppl,all,
outres,cont,all,
! *********** WB SOLVE COMMAND ***********
! check interactive state
*get,ANSINTER_,active,,int
*if,ANSINTER_,ne,0,then
/eof
*endif
solve
/com *************** Write FE CONNECTORS ********* 
CEWRITE,file,ce,,INTE
/com,****************************************************
/com,*************** FINISHED SOLVE FOR LS 1 *************
*get,_wallasol,active,,time,wall
/nopr
*get,_numnode,node,0,count
*get,_numelem,elem,0,count
*get, _MAXELEMNUM, elem, 0, NUM, MAX
*get, _MAXNODENUM, node, 0, NUM, MAX,,,INTERNAL
*get, _MAXELEMTYPE, etyp, 0, NUM, MAX
*get, _MAXREALCONST, rcon, 0, NUM, MAX
*get,_NSOLTHREADS,active,0,ntfs
*get,_NSOLPROCESSES,active,0,npfs
/gopr
/post1
xmlo,ENCODING,ISO-8859-1
xmlo,parm
/xml,parm,xml
fini
/gopr
*get,_walldone,active,,time,wall
_preptime=(_wallbsol-_wallstrt)*3600
_solvtime=(_wallasol-_wallbsol)*3600
_posttime=(_walldone-_wallasol)*3600
_totaltim=(_walldone-_wallstrt)*3600
*get,_dlbratio,active,0,solu,dlbr
*get,_combtime,active,0,solu,comb
*get,_ssmode,active,0,solu,ssmm
*get,_ndofs,active,0,solu,ndof
*get,_sol_end_time,active,0,set,time
*if,_sol_end_time,eq,1.000000,then
/fclean				!clean distributed files
*endif
/com,--- Total number of nodes = %_numnode%
/com,--- Total number of elements = %_numelem%
/com,--- Element load balance ratio = %_dlbratio%
/com,--- Time to combine distributed files = %_combtime%
/com,--- Sparse memory mode = %_ssmode%
/com,--- Number of DOF = %_ndofs%
/wb,file,end               ! done with WB generated input
