/batch
/config,noeldb,1     ! force off writing results to database
*get,_wallstrt,active,,time,wall
! ANSYS input file written by Workbench version 2025 R2
! File used for geometry attach: C:\Users\andre\Desktop\PBLE00\Projeto-Ansys\Projeto_files\dp0\SYS-3\DM\SYS-3.scdocx
/title,Projeto--Static Structural (C5)
! ****** Begin Custom Load Command Snippet ******
/COM, ACT Extensions:
/COM,     LSDYNA, 2025.2
/COM,     5f463412-bd3e-484b-87e7-cbc0a665e474, wbex
/COM,/COM,     ANSYSMotion, 2025.2
/COM,     20180725-3f81-49eb-9f31-41364844c769, wbex
/COM,
! ****** End   Custom Load Command Snippet ******
*DIM,_wb_ProjectScratch_dir,string,248
_wb_ProjectScratch_dir(1) = 'C:\Users\andre\Desktop\PBLE00\Projeto-Ansys\_ProjectScratch\Scr1C44\'
*DIM,_wb_SolverFiles_dir,string,248
_wb_SolverFiles_dir(1) = 'C:\Users\andre\Desktop\PBLE00\Projeto-Ansys\Projeto_files\dp0\SYS-3\MECH\'
*DIM,_wb_userfiles_dir,string,248
_wb_userfiles_dir(1) = 'C:\Users\andre\Desktop\PBLE00\Projeto-Ansys\Projeto_files\user_files\'
/com,--- Data in consistent NMM units. See Solving Units in the help system for more information.
/units,MPA
/nopr
/wb,file,start              !  signify a WB generated input file
/prep7
! Turn off shape checking because checks already performed inside WB mesher.
! See help system for more information.
SHPP,OFF,,NOWARN
/nolist
etcon,set             ! allow ANSYS to choose best KEYOP's for 180x elements, resets any applicable keyopt to MAPDL defaults
/com,*********** Send User Defined Coordinate System(s) ***********
csys,0
/com,*********** Nodes for the whole assembly ***********
nblock,3,,18818
(1i9,3e20.9e3)
    65779     1.545000000E+02    -1.209300000E+02     1.189500000E+01
    65780     1.545000000E+02    -8.274500000E+01     1.189500000E+01
    65781     1.545000000E+02    -1.177479167E+02     1.189500000E+01
    65782     1.545000000E+02    -1.145658333E+02     1.189500000E+01
    65783     1.545000000E+02    -1.113837500E+02     1.189500000E+01
    65784     1.545000000E+02    -1.082016667E+02     1.189500000E+01
    65785     1.545000000E+02    -1.050195833E+02     1.189500000E+01
    65786     1.545000000E+02    -1.018375000E+02     1.189500000E+01
    65787     1.545000000E+02    -9.865541667E+01     1.189500000E+01
    65788     1.545000000E+02    -9.547333333E+01     1.189500000E+01
    65789     1.545000000E+02    -9.229125000E+01     1.189500000E+01
    65790     1.545000000E+02    -8.910916667E+01     1.189500000E+01
    65791     1.545000000E+02    -8.592708333E+01     1.189500000E+01
    65792     1.525000000E+02    -1.189300000E+02     1.389500000E+01
    65793     1.537917439E+02    -1.202217439E+02     1.342148873E+01
    65794     1.525000000E+02    -8.374500000E+01     1.389500000E+01
    65795     1.525000000E+02    -8.694363636E+01     1.389500000E+01
    65796     1.525000000E+02    -9.014227273E+01     1.389500000E+01
    65797     1.525000000E+02    -9.334090909E+01     1.389500000E+01
    65798     1.525000000E+02    -9.653954545E+01     1.389500000E+01
! ... 17089 like lines cut
/wb,elem,start            !  set before creation of elements
/com,*********** Elements for Body 1 'SYS-3\Solid1' ***********
et,1,187
MAT,1 $ TYPE,1 $ REAL,1 $ SECNUM,1 $ ESYS,0
eblock,11,COMPACT,,8023
(11i9)
    40402    66415    66418    68717    67304    73371    73399    73377    73373    73397    77761
    40403    66411    68717    66415    66418    73350    73377    73344    73346    73399    73371
    40404    66411    68717    67307    66415    73350    77774    73349    73344    73377    73374
    40405    66415    67307    67304    68717    73374    77759    73373    73377    77774    77761
    40406    66545    66546    67177    68717    74216    74224    74217    74221    74227    77298
    40407    66416    66546    68717    67300    73381    74227    73385    73383    74225    77748
    40408    66416    66545    68717    66546    73380    74221    73385    73381    74216    74227
    40409    66416    68717    66418    67300    73385    73399    73379    73383    77748    73396
    40410    66411    68717    66418    66416    73350    73399    73346    73345    73385    73379
    40411    66418    68717    67304    67300    73399    77761    73397    73396    77748    77745
    40412    66411    67305    67307    68717    73348    77763    73349    73350    77766    77774
    40413    67304    67305    68717    67307    77758    77766    77761    77759    77763    77774
    40414    67177    67305    68717    67300    77296    77766    77298    77295    77746    77748
    40415    66545    68717    67177    67305    74221    77298    74217    74219    77766    77296
    40416    66411    66416    66545    68717    73345    73380    73347    73350    73385    74221
    40417    67300    67304    67305    68717    77745    77758    77746    77748    77761    77766
    40418    66411    66545    67305    68717    73347    74219    73348    73350    74221    77766
    40419    66005    68716    66074    66006    70551    70930    70546    70545    70559    70555
    40420    66005    66949    66074    68716    70547    70927    70546    70551    76369    70930
    40421    66005    68716    67013    66949    70551    76624    70549    70547    76369    76366
! ... 8004 like lines cut
secnum,1    ! reset the section ID to default
! Material Id = {28577F32-60E0-4D5B-9851-0767A3F70773}
/wb,elem,end               !  done creating elements
toffst,273.15,      ! Temperature offset from absolute zero
/com,*********** Set Reference Temperature ***********
tref,22.
/wb,mat,start              !  starting to send materials
/com,*********** Send Materials ***********
Temperature = 'TEMP' ! Temperature
MP,DENS,1,9.034e-10,	! tonne mm^-3
MP,EX,1,1461,	! tonne s^-2 mm^-1
MP,NUXY,1,0.4087,
MP,ALPX,1,9.909e-05,	! C^-1
MP,KXX,1,0.209,	! tonne mm s^-3 C^-1
MP,C,1,1600000000,	! mm^2 s^-2 C^-1
MP,RSVX,1,1e+19,	! ohm mm
MP,LSST,1,0.0002,
MP,PERX,1,2.2,
MP,UVID,1,0d424e2c-0bfa-4d16-98f2-3d82c5736ae7
MP,UMID,1,5608350a-b010-4b71-8187-140619865111

/wb,mat,end                !  done sending materials
!************************* Model Summary ********************
!SYS-3\Solid1,	Plastic, PP (homopolymer, low flow),	matid,	1
!************************* End Model Summary ********************
! get the diagonal of the bounding box. Needed later for other things
*get,_xmin,node,,mnloc,x
*get,_ymin,node,,mnloc,y
*get,_zmin,node,,mnloc,z
*get,_xmax,node,,mxloc,x
*get,_ymax,node,,mxloc,y
*get,_zmax,node,,mxloc,z
_ASMDIAG=(_xmax-_xmin)*(_xmax-_xmin)+(_ymax-_ymin)*(_ymax-_ymin)+(_zmax-_zmin)*(_zmax-_zmin)
_ASMDIAG=SQRT(_ASMDIAG)
/wb,contact,start          !  starting to send contact
/wb,contact,end            !  done creating contacts
/golist
/wb,load,start             !  starting to send loads
/com,*********** Fixed Supports ***********
CMBLOCK,_FIXEDSU,NODE,      118
(8i10)
     67744    -67797     68495    -68537     79928     79929     79937     79938
     79944     79945     79950     79955     79959     79961     79965    -79967
     79971     79972     79976     79977     79979     79983     79985     79990
     79991     79993     79996     79997     80002     80003     80005     80009
     80011     80015     80016     80019     80023     80026     80027     80032
     80036     80039     80044     80045     80047     80051     80052     80057
    -80059     80063     80064     80067    -80069     80072    -80074     80078
     80080     80084     80085     80087     80091     80093     80097     80098
     80100     80104     80107     80112     80116     80117     80121     80122
     80126     80131     80135    -80137     80143     80144     80149    -80151
     80155     80156     80160    -80162     80166    -80168     80172     80174
     80178    -80180     80184     80186     80191     80192     80194     80199
     80205     80209     80211     80216    -80218     80222     80223     80225
    -80238     80240    -80246     80248     82722    -82787     82791    -82805
     82807    -82822     82824    -82827     82829     82830
cmsel,s,_FIXEDSU
d,all,all
nsel,all
/com,*********** Define Force Using Surface Effect Elements ***********
local,12,0,0.,0.,0.,0.,0.,0.
csys,0
et,2,154
MAT,2 $ TYPE,2 $ REAL,2 $ SECNUM,2 $ ESYS,12
eblock,11,COMPACT,,312
(11i9)
    54469    68360    68424    68407    68407    82447    82568    68407    82445
    54470    68341    68368    68415    68415    82351    82479    68415    82356
    54471    68334    68442    68391    68391    82313    82545    68391    82309
    54472    68332    68378    68382    68382    82296    82508    68382    82297
    54473    68345    68354    68383    68383    82375    82416    68383    82376
    54474    68332    68382    68368    68368    82297    82478    68368    82295
    54475    68388    68413    68412    68412    82539    82573    68412    82538
    54476    68343    68361    68375    68375    82362    82450    68375    82363
    54477    68368    68382    68415    68415    82478    82521    68415    82479
    54478    68334    68413    68379    68379    82311    82512    68379    82308
    54479    68336    68373    68404    68404    82321    82494    68404    82323
    54480    68341    68397    68380    68380    82355    82515    68380    82352
    54481    68391    68419    68423    68423    82543    82578    68423    82544
    54482    68349    68409    68354    68354    82394    82418    68354    82392
    54483    68366    68398    68381    68381    82471    82519    68381    82470
    54484    68357    68386    68438    68438    82430    82532    68438    82434
    54485    68339    68343    68413    68413    82339    82366    68413    82344
    54486    68332    68364    68419    68419    82294    82461    68419    82298
    54487    68350    68376    68440    68440    82398    82504    68440    82402
    54488    67705    67731    67717    67717    79749    79820    67717    79748
! ... 293 like lines cut
secnum,1    ! reset the section ID to default
esel,s,type,,2
keyop,2,2,1         ! Apply load in local coordinate system
keyop,2,7,1         ! Use original area so load is constant in large deformation
esel,all
/gst,on,on
fini
*get,_numnode,node,0,count
*get,_numelem,elem,0,count
*get, _MAXELEMNUM, elem, 0, NUM, MAX
*get, _MAXNODENUM, node, 0, NUM, MAX
*get, _MAXELEMTYPE, etyp, 0, NUM, MAX
*get, _MAXREALCONST, rcon, 0, NUM, MAX
/go
/wb,load,end               !  done creating loads
/com,--- Number of total nodes = %_numnode%
/com,--- Number of contact elements = 312
/com,--- Number of spring elements = 0
/com,--- Number of bearing elements = 0
/com,--- Number of solid elements = 8023
/com,--- Number of condensed parts = 0
/com,--- Number of total elements = %_numelem%
*get,_wallbsol,active,,time,wall
/com,****************************************************************************
/com,*************************    SOLUTION       ********************************
/com,****************************************************************************
/solu
antype,0                   ! static analysis
_thickRatio=  0     ! Ratio of thick parts in the model
eqsl,sparse,,,,,1
cntr,print,1               ! print out contact info and also make no initial contact an error
cncheck,dmp		!	Enable program controlled contact splitting for distributed memory parallel run
dmpoption,emat,no             ! Don't combine emat file for DANSYS
dmpoption,esav,no             ! Don't combine esav file for DANSYS
nldiag,cont,iter           ! print out contact info each equilibrium iteration
rescontrol,,none                 ! Do not keep any restart files
/com,****************************************************
/com,******************* SOLVE FOR LS 1 OF 1 ****************
esel,s,type,,2
nsle
sfe,all,1,pres,1,2.41196282298675e-032
sfe,all,2,pres,1,1.96951725377974e-016
sfe,all,3,pres,1,-0.2984116935038
nsel,all
esel,all
/nopr
/gopr
nsub,1,1,1
time,1.
outres,erase
outres,all,none
outres,nsol,all,
outres,rsol,all
outres,eangl,all
outres,etmp,all
outres,veng,all
outres,strs,all,
outres,epel,all,
outres,eppl,all,
outres,cont,all,
! *********** WB SOLVE COMMAND ***********
! check interactive state
*get,ANSINTER_,active,,int
*if,ANSINTER_,ne,0,then
/eof
*endif
solve
/com *************** Write FE CONNECTORS ********* 
CEWRITE,file,ce,,INTE
/com,****************************************************
/com,*************** FINISHED SOLVE FOR LS 1 *************
*get,_wallasol,active,,time,wall
/nopr
*get,_numnode,node,0,count
*get,_numelem,elem,0,count
*get, _MAXELEMNUM, elem, 0, NUM, MAX
*get, _MAXNODENUM, node, 0, NUM, MAX,,,INTERNAL
*get, _MAXELEMTYPE, etyp, 0, NUM, MAX
*get, _MAXREALCONST, rcon, 0, NUM, MAX
*get,_NSOLTHREADS,active,0,ntfs
*get,_NSOLPROCESSES,active,0,npfs
/gopr
/post1
xmlo,ENCODING,ISO-8859-1
xmlo,parm
/xml,parm,xml
fini
/gopr
*get,_walldone,active,,time,wall
_preptime=(_wallbsol-_wallstrt)*3600
_solvtime=(_wallasol-_wallbsol)*3600
_posttime=(_walldone-_wallasol)*3600
_totaltim=(_walldone-_wallstrt)*3600
*get,_dlbratio,active,0,solu,dlbr
*get,_combtime,active,0,solu,comb
*get,_ssmode,active,0,solu,ssmm
*get,_ndofs,active,0,solu,ndof
*get,_sol_end_time,active,0,set,time
*if,_sol_end_time,eq,1.000000,then
/fclean				!clean distributed files
*endif
/com,--- Total number of nodes = %_numnode%
/com,--- Total number of elements = %_numelem%
/com,--- Element load balance ratio = %_dlbratio%
/com,--- Time to combine distributed files = %_combtime%
/com,--- Sparse memory mode = %_ssmode%
/com,--- Number of DOF = %_ndofs%
/wb,file,end               ! done with WB generated input
